McPAT (version 0.8 of Aug, 2010) is computing the target processor...
 

McPAT (version 0.8 of Aug, 2010) results (current print level is 2, please increase print level to see the details in components): 
*****************************************************************************************
  Technology 32 nm
  Interconnect metal projection= aggressive interconnect technology projection
  Core clock Rate(MHz) 2000

*****************************************************************************************
Processor: 
  Area = 15.3918 mm^2
  Peak Power = 3.83389 W
  Total Leakage = 1.99701 W
  Peak Dynamic = 1.83687 W
  Subthreshold Leakage = 1.65331 W
  Gate Leakage = 0.343709 W
  Runtime Dynamic = 0.153433 W

  Total Cores: 2 cores 
  Device Type= ITRS high performance device type
    Area = 5.99395 mm^2
    Peak Dynamic = 1.53193 W
    Subthreshold Leakage = 0.807821 W
    Gate Leakage = 0.200969 W
    Runtime Dynamic = 0.134619 W

  Total L2s: 
  Device Type= ITRS high performance device type
    Area = 8.81041 mm^2
    Peak Dynamic = 0.0566863 W
    Subthreshold Leakage = 0.819757 W
    Gate Leakage = 0.137044 W
    Runtime Dynamic = 0.000987692 W

  Total First Level Directory: 
  Device Type= ITRS high performance device type
    Area = 0.309852 mm^2
    Peak Dynamic = 0.00383535 W
    Subthreshold Leakage = 0.021481 W
    Gate Leakage = 0.00440768 W
    Runtime Dynamic = 2.85996e-12 W

  Total NoCs (Network/Bus): 
  Device Type= ITRS high performance device type
    Area = 0.0224446 mm^2
    Peak Dynamic = 0.0661529 W
    Subthreshold Leakage = 0.00215164 W
    Gate Leakage = 0.000523911 W
    Runtime Dynamic = 0 W

  Total MCs: 1 Memory Controllers 
  Device Type= ITRS high performance device type
    Area = 0.255133 mm^2
    Peak Dynamic = 0.178272 W
    Subthreshold Leakage = 0.00209381 W
    Gate Leakage = 0.000765475 W
    Runtime Dynamic = 0.0178272 W

*****************************************************************************************
Core:
      Area = 2.99698 mm^2
      Peak Dynamic = 0.765963 W
      Subthreshold Leakage = 0.403911 W
      Gate Leakage = 0.100484 W
      Runtime Dynamic = 0.0680933 W

      Instruction Fetch Unit:
        Area = 0.38248 mm^2
        Peak Dynamic = 0.145854 W
        Subthreshold Leakage = 0.022762 W
        Gate Leakage = 0.00524774 W
        Runtime Dynamic = 0.0164522 W

      Load Store Unit:
        Area = 0.09045 mm^2
        Peak Dynamic = 0.0711095 W
        Subthreshold Leakage = 0.00674 W
        Gate Leakage = 0.00240948 W
        Runtime Dynamic = 0.0166496 W

      Memory Management Unit:
        Area = 0.0537643 mm^2
        Peak Dynamic = 0.0361709 W
        Subthreshold Leakage = 0.00427823 W
        Gate Leakage = 0.00186514 W
        Runtime Dynamic = 0.0164263 W

      Execution Unit:
        Area = 1.60685 mm^2
        Peak Dynamic = 0.512829 W
        Subthreshold Leakage = 0.23127 W
        Gate Leakage = 0.0571502 W
        Runtime Dynamic = 0.0185652 W

*****************************************************************************************
Core:
      Area = 2.99698 mm^2
      Peak Dynamic = 0.765963 W
      Subthreshold Leakage = 0.403911 W
      Gate Leakage = 0.100484 W
      Runtime Dynamic = 0.0665253 W

      Instruction Fetch Unit:
        Area = 0.38248 mm^2
        Peak Dynamic = 0.145854 W
        Subthreshold Leakage = 0.022762 W
        Gate Leakage = 0.00524774 W
        Runtime Dynamic = 0.016423 W

      Load Store Unit:
        Area = 0.09045 mm^2
        Peak Dynamic = 0.0711095 W
        Subthreshold Leakage = 0.00674 W
        Gate Leakage = 0.00240948 W
        Runtime Dynamic = 0.0165177 W

      Memory Management Unit:
        Area = 0.0537643 mm^2
        Peak Dynamic = 0.0361709 W
        Subthreshold Leakage = 0.00427823 W
        Gate Leakage = 0.00186514 W
        Runtime Dynamic = 0.0164199 W

      Execution Unit:
        Area = 1.60685 mm^2
        Peak Dynamic = 0.512829 W
        Subthreshold Leakage = 0.23127 W
        Gate Leakage = 0.0571502 W
        Runtime Dynamic = 0.0171648 W

*****************************************************************************************
L2
      Area = 8.81041 mm^2
      Peak Dynamic = 0.0566863 W
      Subthreshold Leakage = 0.819757 W
      Gate Leakage = 0.137044 W
      Runtime Dynamic = 0.000987692 W

*****************************************************************************************
First Level Directory
      Area = 0.309852 mm^2
      Peak Dynamic = 0.00383535 W
      Subthreshold Leakage = 0.021481 W
      Gate Leakage = 0.00440768 W
      Runtime Dynamic = 2.85996e-12 W

*****************************************************************************************
Memory Controller:
      Area = 0.255133 mm^2
      Peak Dynamic = 0.178272 W
      Subthreshold Leakage = 0.00209381 W
      Gate Leakage = 0.000765475 W
      Runtime Dynamic = 0.0178272 W

      Front End Engine:
        Area = 0.218778 mm^2
        Peak Dynamic = 0.0596299 W
        Subthreshold Leakage = 0.00143115 W
        Gate Leakage = 0.000322201 W
        Runtime Dynamic = 0.00596299 W

      Transaction Engine:
        Area = 0.036355 mm^2
        Peak Dynamic = 0.118642 W
        Subthreshold Leakage = 0.000662658 W
        Gate Leakage = 0.000443275 W
        Runtime Dynamic = 0.0118642 W

*****************************************************************************************
BUSES
      Area = 0.0224446 mm^2
      Peak Dynamic = 0.0661529 W
      Subthreshold Leakage = 0.00215164 W
      Gate Leakage = 0.000523911 W
      Runtime Dynamic = 0 W

      Bus: 
        Area = 0.0224446 mm^2
        Peak Dynamic = 0.0661529 W
        Subthreshold Leakage = 0.00215164 W
        Gate Leakage = 0.000523911 W
        Runtime Dynamic = 0 W

*****************************************************************************************

McPAT (version 0.8 of Aug, 2010) results (current print level is 2, please increase print level to see the details in components): 
*****************************************************************************************
  Technology 32 nm
  Interconnect metal projection= aggressive interconnect technology projection
  Core clock Rate(MHz) 2000

*****************************************************************************************
Processor: 
  Area = 15.3918 mm^2
  Peak Power = 3.83389 W
  Total Leakage = 1.99701 W
  Peak Dynamic = 1.83687 W
  Subthreshold Leakage = 1.65331 W
  Gate Leakage = 0.343709 W
  Runtime Dynamic = 0.234264 W

  Total Cores: 2 cores 
  Device Type= ITRS high performance device type
    Area = 5.99395 mm^2
    Peak Dynamic = 1.53193 W
    Subthreshold Leakage = 0.807821 W
    Gate Leakage = 0.200969 W
    Runtime Dynamic = 0.212885 W

  Total L2s: 
  Device Type= ITRS high performance device type
    Area = 8.81041 mm^2
    Peak Dynamic = 0.0566863 W
    Subthreshold Leakage = 0.819757 W
    Gate Leakage = 0.137044 W
    Runtime Dynamic = 0.00355172 W

  Total First Level Directory: 
  Device Type= ITRS high performance device type
    Area = 0.309852 mm^2
    Peak Dynamic = 0.00383535 W
    Subthreshold Leakage = 0.021481 W
    Gate Leakage = 0.00440768 W
    Runtime Dynamic = 8.19178e-11 W

  Total NoCs (Network/Bus): 
  Device Type= ITRS high performance device type
    Area = 0.0224446 mm^2
    Peak Dynamic = 0.0661529 W
    Subthreshold Leakage = 0.00215164 W
    Gate Leakage = 0.000523911 W
    Runtime Dynamic = 0 W

  Total MCs: 1 Memory Controllers 
  Device Type= ITRS high performance device type
    Area = 0.255133 mm^2
    Peak Dynamic = 0.178272 W
    Subthreshold Leakage = 0.00209381 W
    Gate Leakage = 0.000765475 W
    Runtime Dynamic = 0.0178272 W

*****************************************************************************************
Core:
      Area = 2.99698 mm^2
      Peak Dynamic = 0.765963 W
      Subthreshold Leakage = 0.403911 W
      Gate Leakage = 0.100484 W
      Runtime Dynamic = 0.146204 W

      Instruction Fetch Unit:
        Area = 0.38248 mm^2
        Peak Dynamic = 0.145854 W
        Subthreshold Leakage = 0.022762 W
        Gate Leakage = 0.00524774 W
        Runtime Dynamic = 0.0168572 W

      Load Store Unit:
        Area = 0.09045 mm^2
        Peak Dynamic = 0.0711095 W
        Subthreshold Leakage = 0.00674 W
        Gate Leakage = 0.00240948 W
        Runtime Dynamic = 0.0219761 W

      Memory Management Unit:
        Area = 0.0537643 mm^2
        Peak Dynamic = 0.0361709 W
        Subthreshold Leakage = 0.00427823 W
        Gate Leakage = 0.00186514 W
        Runtime Dynamic = 0.0202032 W

      Execution Unit:
        Area = 1.60685 mm^2
        Peak Dynamic = 0.512829 W
        Subthreshold Leakage = 0.23127 W
        Gate Leakage = 0.0571502 W
        Runtime Dynamic = 0.0871676 W

*****************************************************************************************
Core:
      Area = 2.99698 mm^2
      Peak Dynamic = 0.765963 W
      Subthreshold Leakage = 0.403911 W
      Gate Leakage = 0.100484 W
      Runtime Dynamic = 0.0666807 W

      Instruction Fetch Unit:
        Area = 0.38248 mm^2
        Peak Dynamic = 0.145854 W
        Subthreshold Leakage = 0.022762 W
        Gate Leakage = 0.00524774 W
        Runtime Dynamic = 0.0164209 W

      Load Store Unit:
        Area = 0.09045 mm^2
        Peak Dynamic = 0.0711095 W
        Subthreshold Leakage = 0.00674 W
        Gate Leakage = 0.00240948 W
        Runtime Dynamic = 0.0165367 W

      Memory Management Unit:
        Area = 0.0537643 mm^2
        Peak Dynamic = 0.0361709 W
        Subthreshold Leakage = 0.00427823 W
        Gate Leakage = 0.00186514 W
        Runtime Dynamic = 0.0164153 W

      Execution Unit:
        Area = 1.60685 mm^2
        Peak Dynamic = 0.512829 W
        Subthreshold Leakage = 0.23127 W
        Gate Leakage = 0.0571502 W
        Runtime Dynamic = 0.0173079 W

*****************************************************************************************
L2
      Area = 8.81041 mm^2
      Peak Dynamic = 0.0566863 W
      Subthreshold Leakage = 0.819757 W
      Gate Leakage = 0.137044 W
      Runtime Dynamic = 0.00355172 W

*****************************************************************************************
First Level Directory
      Area = 0.309852 mm^2
      Peak Dynamic = 0.00383535 W
      Subthreshold Leakage = 0.021481 W
      Gate Leakage = 0.00440768 W
      Runtime Dynamic = 8.19178e-11 W

*****************************************************************************************
Memory Controller:
      Area = 0.255133 mm^2
      Peak Dynamic = 0.178272 W
      Subthreshold Leakage = 0.00209381 W
      Gate Leakage = 0.000765475 W
      Runtime Dynamic = 0.0178272 W

      Front End Engine:
        Area = 0.218778 mm^2
        Peak Dynamic = 0.0596299 W
        Subthreshold Leakage = 0.00143115 W
        Gate Leakage = 0.000322201 W
        Runtime Dynamic = 0.00596299 W

      Transaction Engine:
        Area = 0.036355 mm^2
        Peak Dynamic = 0.118642 W
        Subthreshold Leakage = 0.000662658 W
        Gate Leakage = 0.000443275 W
        Runtime Dynamic = 0.0118642 W

*****************************************************************************************
BUSES
      Area = 0.0224446 mm^2
      Peak Dynamic = 0.0661529 W
      Subthreshold Leakage = 0.00215164 W
      Gate Leakage = 0.000523911 W
      Runtime Dynamic = 0 W

      Bus: 
        Area = 0.0224446 mm^2
        Peak Dynamic = 0.0661529 W
        Subthreshold Leakage = 0.00215164 W
        Gate Leakage = 0.000523911 W
        Runtime Dynamic = 0 W

*****************************************************************************************

McPAT (version 0.8 of Aug, 2010) results (current print level is 2, please increase print level to see the details in components): 
*****************************************************************************************
  Technology 32 nm
  Interconnect metal projection= aggressive interconnect technology projection
  Core clock Rate(MHz) 2000

*****************************************************************************************
Processor: 
  Area = 15.3918 mm^2
  Peak Power = 3.83389 W
  Total Leakage = 1.99701 W
  Peak Dynamic = 1.83687 W
  Subthreshold Leakage = 1.65331 W
  Gate Leakage = 0.343709 W
  Runtime Dynamic = 0.226065 W

  Total Cores: 2 cores 
  Device Type= ITRS high performance device type
    Area = 5.99395 mm^2
    Peak Dynamic = 1.53193 W
    Subthreshold Leakage = 0.807821 W
    Gate Leakage = 0.200969 W
    Runtime Dynamic = 0.206687 W

  Total L2s: 
  Device Type= ITRS high performance device type
    Area = 8.81041 mm^2
    Peak Dynamic = 0.0566863 W
    Subthreshold Leakage = 0.819757 W
    Gate Leakage = 0.137044 W
    Runtime Dynamic = 0.00152229 W

  Total First Level Directory: 
  Device Type= ITRS high performance device type
    Area = 0.309852 mm^2
    Peak Dynamic = 0.00383535 W
    Subthreshold Leakage = 0.021481 W
    Gate Leakage = 0.00440768 W
    Runtime Dynamic = 6.79111e-10 W

  Total NoCs (Network/Bus): 
  Device Type= ITRS high performance device type
    Area = 0.0224446 mm^2
    Peak Dynamic = 0.0661529 W
    Subthreshold Leakage = 0.00215164 W
    Gate Leakage = 0.000523911 W
    Runtime Dynamic = 0 W

  Total MCs: 1 Memory Controllers 
  Device Type= ITRS high performance device type
    Area = 0.255133 mm^2
    Peak Dynamic = 0.178272 W
    Subthreshold Leakage = 0.00209381 W
    Gate Leakage = 0.000765475 W
    Runtime Dynamic = 0.0178549 W

*****************************************************************************************
Core:
      Area = 2.99698 mm^2
      Peak Dynamic = 0.765963 W
      Subthreshold Leakage = 0.403911 W
      Gate Leakage = 0.100484 W
      Runtime Dynamic = 0.135193 W

      Instruction Fetch Unit:
        Area = 0.38248 mm^2
        Peak Dynamic = 0.145854 W
        Subthreshold Leakage = 0.022762 W
        Gate Leakage = 0.00524774 W
        Runtime Dynamic = 0.0165917 W

      Load Store Unit:
        Area = 0.09045 mm^2
        Peak Dynamic = 0.0711095 W
        Subthreshold Leakage = 0.00674 W
        Gate Leakage = 0.00240948 W
        Runtime Dynamic = 0.0218442 W

      Memory Management Unit:
        Area = 0.0537643 mm^2
        Peak Dynamic = 0.0361709 W
        Subthreshold Leakage = 0.00427823 W
        Gate Leakage = 0.00186514 W
        Runtime Dynamic = 0.0209572 W

      Execution Unit:
        Area = 1.60685 mm^2
        Peak Dynamic = 0.512829 W
        Subthreshold Leakage = 0.23127 W
        Gate Leakage = 0.0571502 W
        Runtime Dynamic = 0.0757999 W

*****************************************************************************************
Core:
      Area = 2.99698 mm^2
      Peak Dynamic = 0.765963 W
      Subthreshold Leakage = 0.403911 W
      Gate Leakage = 0.100484 W
      Runtime Dynamic = 0.0714945 W

      Instruction Fetch Unit:
        Area = 0.38248 mm^2
        Peak Dynamic = 0.145854 W
        Subthreshold Leakage = 0.022762 W
        Gate Leakage = 0.00524774 W
        Runtime Dynamic = 0.0178214 W

      Load Store Unit:
        Area = 0.09045 mm^2
        Peak Dynamic = 0.0711095 W
        Subthreshold Leakage = 0.00674 W
        Gate Leakage = 0.00240948 W
        Runtime Dynamic = 0.0178452 W

      Memory Management Unit:
        Area = 0.0537643 mm^2
        Peak Dynamic = 0.0361709 W
        Subthreshold Leakage = 0.00427823 W
        Gate Leakage = 0.00186514 W
        Runtime Dynamic = 0.0178226 W

      Execution Unit:
        Area = 1.60685 mm^2
        Peak Dynamic = 0.512829 W
        Subthreshold Leakage = 0.23127 W
        Gate Leakage = 0.0571502 W
        Runtime Dynamic = 0.0180053 W

*****************************************************************************************
L2
      Area = 8.81041 mm^2
      Peak Dynamic = 0.0566863 W
      Subthreshold Leakage = 0.819757 W
      Gate Leakage = 0.137044 W
      Runtime Dynamic = 0.00152229 W

*****************************************************************************************
First Level Directory
      Area = 0.309852 mm^2
      Peak Dynamic = 0.00383535 W
      Subthreshold Leakage = 0.021481 W
      Gate Leakage = 0.00440768 W
      Runtime Dynamic = 6.79111e-10 W

*****************************************************************************************
Memory Controller:
      Area = 0.255133 mm^2
      Peak Dynamic = 0.178272 W
      Subthreshold Leakage = 0.00209381 W
      Gate Leakage = 0.000765475 W
      Runtime Dynamic = 0.0178549 W

      Front End Engine:
        Area = 0.218778 mm^2
        Peak Dynamic = 0.0596299 W
        Subthreshold Leakage = 0.00143115 W
        Gate Leakage = 0.000322201 W
        Runtime Dynamic = 0.00596698 W

      Transaction Engine:
        Area = 0.036355 mm^2
        Peak Dynamic = 0.118642 W
        Subthreshold Leakage = 0.000662658 W
        Gate Leakage = 0.000443275 W
        Runtime Dynamic = 0.0118879 W

*****************************************************************************************
BUSES
      Area = 0.0224446 mm^2
      Peak Dynamic = 0.0661529 W
      Subthreshold Leakage = 0.00215164 W
      Gate Leakage = 0.000523911 W
      Runtime Dynamic = 0 W

      Bus: 
        Area = 0.0224446 mm^2
        Peak Dynamic = 0.0661529 W
        Subthreshold Leakage = 0.00215164 W
        Gate Leakage = 0.000523911 W
        Runtime Dynamic = 0 W

*****************************************************************************************

McPAT (version 0.8 of Aug, 2010) results (current print level is 2, please increase print level to see the details in components): 
*****************************************************************************************
  Technology 32 nm
  Interconnect metal projection= aggressive interconnect technology projection
  Core clock Rate(MHz) 2000

*****************************************************************************************
Processor: 
  Area = 15.3918 mm^2
  Peak Power = 3.83389 W
  Total Leakage = 1.99701 W
  Peak Dynamic = 1.83687 W
  Subthreshold Leakage = 1.65331 W
  Gate Leakage = 0.343709 W
  Runtime Dynamic = 0.220117 W

  Total Cores: 2 cores 
  Device Type= ITRS high performance device type
    Area = 5.99395 mm^2
    Peak Dynamic = 1.53193 W
    Subthreshold Leakage = 0.807821 W
    Gate Leakage = 0.200969 W
    Runtime Dynamic = 0.199417 W

  Total L2s: 
  Device Type= ITRS high performance device type
    Area = 8.81041 mm^2
    Peak Dynamic = 0.0566863 W
    Subthreshold Leakage = 0.819757 W
    Gate Leakage = 0.137044 W
    Runtime Dynamic = 0.00272825 W

  Total First Level Directory: 
  Device Type= ITRS high performance device type
    Area = 0.309852 mm^2
    Peak Dynamic = 0.00383535 W
    Subthreshold Leakage = 0.021481 W
    Gate Leakage = 0.00440768 W
    Runtime Dynamic = 6.79111e-10 W

  Total NoCs (Network/Bus): 
  Device Type= ITRS high performance device type
    Area = 0.0224446 mm^2
    Peak Dynamic = 0.0661529 W
    Subthreshold Leakage = 0.00215164 W
    Gate Leakage = 0.000523911 W
    Runtime Dynamic = 0 W

  Total MCs: 1 Memory Controllers 
  Device Type= ITRS high performance device type
    Area = 0.255133 mm^2
    Peak Dynamic = 0.178272 W
    Subthreshold Leakage = 0.00209381 W
    Gate Leakage = 0.000765475 W
    Runtime Dynamic = 0.0179714 W

*****************************************************************************************
Core:
      Area = 2.99698 mm^2
      Peak Dynamic = 0.765963 W
      Subthreshold Leakage = 0.403911 W
      Gate Leakage = 0.100484 W
      Runtime Dynamic = 0.13062 W

      Instruction Fetch Unit:
        Area = 0.38248 mm^2
        Peak Dynamic = 0.145854 W
        Subthreshold Leakage = 0.022762 W
        Gate Leakage = 0.00524774 W
        Runtime Dynamic = 0.0169445 W

      Load Store Unit:
        Area = 0.09045 mm^2
        Peak Dynamic = 0.0711095 W
        Subthreshold Leakage = 0.00674 W
        Gate Leakage = 0.00240948 W
        Runtime Dynamic = 0.0209486 W

      Memory Management Unit:
        Area = 0.0537643 mm^2
        Peak Dynamic = 0.0361709 W
        Subthreshold Leakage = 0.00427823 W
        Gate Leakage = 0.00186514 W
        Runtime Dynamic = 0.0207794 W

      Execution Unit:
        Area = 1.60685 mm^2
        Peak Dynamic = 0.512829 W
        Subthreshold Leakage = 0.23127 W
        Gate Leakage = 0.0571502 W
        Runtime Dynamic = 0.071948 W

*****************************************************************************************
Core:
      Area = 2.99698 mm^2
      Peak Dynamic = 0.765963 W
      Subthreshold Leakage = 0.403911 W
      Gate Leakage = 0.100484 W
      Runtime Dynamic = 0.0687968 W

      Instruction Fetch Unit:
        Area = 0.38248 mm^2
        Peak Dynamic = 0.145854 W
        Subthreshold Leakage = 0.022762 W
        Gate Leakage = 0.00524774 W
        Runtime Dynamic = 0.0159032 W

      Load Store Unit:
        Area = 0.09045 mm^2
        Peak Dynamic = 0.0711095 W
        Subthreshold Leakage = 0.00674 W
        Gate Leakage = 0.00240948 W
        Runtime Dynamic = 0.0162853 W

      Memory Management Unit:
        Area = 0.0537643 mm^2
        Peak Dynamic = 0.0361709 W
        Subthreshold Leakage = 0.00427823 W
        Gate Leakage = 0.00186514 W
        Runtime Dynamic = 0.0158568 W

      Execution Unit:
        Area = 1.60685 mm^2
        Peak Dynamic = 0.512829 W
        Subthreshold Leakage = 0.23127 W
        Gate Leakage = 0.0571502 W
        Runtime Dynamic = 0.0207515 W

*****************************************************************************************
L2
      Area = 8.81041 mm^2
      Peak Dynamic = 0.0566863 W
      Subthreshold Leakage = 0.819757 W
      Gate Leakage = 0.137044 W
      Runtime Dynamic = 0.00272825 W

*****************************************************************************************
First Level Directory
      Area = 0.309852 mm^2
      Peak Dynamic = 0.00383535 W
      Subthreshold Leakage = 0.021481 W
      Gate Leakage = 0.00440768 W
      Runtime Dynamic = 6.79111e-10 W

*****************************************************************************************
Memory Controller:
      Area = 0.255133 mm^2
      Peak Dynamic = 0.178272 W
      Subthreshold Leakage = 0.00209381 W
      Gate Leakage = 0.000765475 W
      Runtime Dynamic = 0.0179714 W

      Front End Engine:
        Area = 0.218778 mm^2
        Peak Dynamic = 0.0596299 W
        Subthreshold Leakage = 0.00143115 W
        Gate Leakage = 0.000322201 W
        Runtime Dynamic = 0.00598394 W

      Transaction Engine:
        Area = 0.036355 mm^2
        Peak Dynamic = 0.118642 W
        Subthreshold Leakage = 0.000662658 W
        Gate Leakage = 0.000443275 W
        Runtime Dynamic = 0.0119874 W

*****************************************************************************************
BUSES
      Area = 0.0224446 mm^2
      Peak Dynamic = 0.0661529 W
      Subthreshold Leakage = 0.00215164 W
      Gate Leakage = 0.000523911 W
      Runtime Dynamic = 0 W

      Bus: 
        Area = 0.0224446 mm^2
        Peak Dynamic = 0.0661529 W
        Subthreshold Leakage = 0.00215164 W
        Gate Leakage = 0.000523911 W
        Runtime Dynamic = 0 W

*****************************************************************************************

McPAT (version 0.8 of Aug, 2010) results (current print level is 2, please increase print level to see the details in components): 
*****************************************************************************************
  Technology 32 nm
  Interconnect metal projection= aggressive interconnect technology projection
  Core clock Rate(MHz) 2000

*****************************************************************************************
Processor: 
  Area = 15.3918 mm^2
  Peak Power = 3.83389 W
  Total Leakage = 1.99701 W
  Peak Dynamic = 1.83687 W
  Subthreshold Leakage = 1.65331 W
  Gate Leakage = 0.343709 W
  Runtime Dynamic = 0.220055 W

  Total Cores: 2 cores 
  Device Type= ITRS high performance device type
    Area = 5.99395 mm^2
    Peak Dynamic = 1.53193 W
    Subthreshold Leakage = 0.807821 W
    Gate Leakage = 0.200969 W
    Runtime Dynamic = 0.199166 W

  Total L2s: 
  Device Type= ITRS high performance device type
    Area = 8.81041 mm^2
    Peak Dynamic = 0.0566863 W
    Subthreshold Leakage = 0.819757 W
    Gate Leakage = 0.137044 W
    Runtime Dynamic = 0.00291799 W

  Total First Level Directory: 
  Device Type= ITRS high performance device type
    Area = 0.309852 mm^2
    Peak Dynamic = 0.00383535 W
    Subthreshold Leakage = 0.021481 W
    Gate Leakage = 0.00440768 W
    Runtime Dynamic = 6.79111e-10 W

  Total NoCs (Network/Bus): 
  Device Type= ITRS high performance device type
    Area = 0.0224446 mm^2
    Peak Dynamic = 0.0661529 W
    Subthreshold Leakage = 0.00215164 W
    Gate Leakage = 0.000523911 W
    Runtime Dynamic = 0 W

  Total MCs: 1 Memory Controllers 
  Device Type= ITRS high performance device type
    Area = 0.255133 mm^2
    Peak Dynamic = 0.178272 W
    Subthreshold Leakage = 0.00209381 W
    Gate Leakage = 0.000765475 W
    Runtime Dynamic = 0.017971 W

*****************************************************************************************
Core:
      Area = 2.99698 mm^2
      Peak Dynamic = 0.765963 W
      Subthreshold Leakage = 0.403911 W
      Gate Leakage = 0.100484 W
      Runtime Dynamic = 0.129879 W

      Instruction Fetch Unit:
        Area = 0.38248 mm^2
        Peak Dynamic = 0.145854 W
        Subthreshold Leakage = 0.022762 W
        Gate Leakage = 0.00524774 W
        Runtime Dynamic = 0.0165455 W

      Load Store Unit:
        Area = 0.09045 mm^2
        Peak Dynamic = 0.0711095 W
        Subthreshold Leakage = 0.00674 W
        Gate Leakage = 0.00240948 W
        Runtime Dynamic = 0.0219878 W

      Memory Management Unit:
        Area = 0.0537643 mm^2
        Peak Dynamic = 0.0361709 W
        Subthreshold Leakage = 0.00427823 W
        Gate Leakage = 0.00186514 W
        Runtime Dynamic = 0.0204555 W

      Execution Unit:
        Area = 1.60685 mm^2
        Peak Dynamic = 0.512829 W
        Subthreshold Leakage = 0.23127 W
        Gate Leakage = 0.0571502 W
        Runtime Dynamic = 0.0708906 W

*****************************************************************************************
Core:
      Area = 2.99698 mm^2
      Peak Dynamic = 0.765963 W
      Subthreshold Leakage = 0.403911 W
      Gate Leakage = 0.100484 W
      Runtime Dynamic = 0.0692869 W

      Instruction Fetch Unit:
        Area = 0.38248 mm^2
        Peak Dynamic = 0.145854 W
        Subthreshold Leakage = 0.022762 W
        Gate Leakage = 0.00524774 W
        Runtime Dynamic = 0.0160894 W

      Load Store Unit:
        Area = 0.09045 mm^2
        Peak Dynamic = 0.0711095 W
        Subthreshold Leakage = 0.00674 W
        Gate Leakage = 0.00240948 W
        Runtime Dynamic = 0.0164451 W

      Memory Management Unit:
        Area = 0.0537643 mm^2
        Peak Dynamic = 0.0361709 W
        Subthreshold Leakage = 0.00427823 W
        Gate Leakage = 0.00186514 W
        Runtime Dynamic = 0.0160492 W

      Execution Unit:
        Area = 1.60685 mm^2
        Peak Dynamic = 0.512829 W
        Subthreshold Leakage = 0.23127 W
        Gate Leakage = 0.0571502 W
        Runtime Dynamic = 0.0207033 W

*****************************************************************************************
L2
      Area = 8.81041 mm^2
      Peak Dynamic = 0.0566863 W
      Subthreshold Leakage = 0.819757 W
      Gate Leakage = 0.137044 W
      Runtime Dynamic = 0.00291799 W

*****************************************************************************************
First Level Directory
      Area = 0.309852 mm^2
      Peak Dynamic = 0.00383535 W
      Subthreshold Leakage = 0.021481 W
      Gate Leakage = 0.00440768 W
      Runtime Dynamic = 6.79111e-10 W

*****************************************************************************************
Memory Controller:
      Area = 0.255133 mm^2
      Peak Dynamic = 0.178272 W
      Subthreshold Leakage = 0.00209381 W
      Gate Leakage = 0.000765475 W
      Runtime Dynamic = 0.017971 W

      Front End Engine:
        Area = 0.218778 mm^2
        Peak Dynamic = 0.0596299 W
        Subthreshold Leakage = 0.00143115 W
        Gate Leakage = 0.000322201 W
        Runtime Dynamic = 0.00598387 W

      Transaction Engine:
        Area = 0.036355 mm^2
        Peak Dynamic = 0.118642 W
        Subthreshold Leakage = 0.000662658 W
        Gate Leakage = 0.000443275 W
        Runtime Dynamic = 0.0119872 W

*****************************************************************************************
BUSES
      Area = 0.0224446 mm^2
      Peak Dynamic = 0.0661529 W
      Subthreshold Leakage = 0.00215164 W
      Gate Leakage = 0.000523911 W
      Runtime Dynamic = 0 W

      Bus: 
        Area = 0.0224446 mm^2
        Peak Dynamic = 0.0661529 W
        Subthreshold Leakage = 0.00215164 W
        Gate Leakage = 0.000523911 W
        Runtime Dynamic = 0 W

*****************************************************************************************

McPAT (version 0.8 of Aug, 2010) results (current print level is 2, please increase print level to see the details in components): 
*****************************************************************************************
  Technology 32 nm
  Interconnect metal projection= aggressive interconnect technology projection
  Core clock Rate(MHz) 2000

*****************************************************************************************
Processor: 
  Area = 15.3918 mm^2
  Peak Power = 3.83389 W
  Total Leakage = 1.99701 W
  Peak Dynamic = 1.83687 W
  Subthreshold Leakage = 1.65331 W
  Gate Leakage = 0.343709 W
  Runtime Dynamic = 0.219304 W

  Total Cores: 2 cores 
  Device Type= ITRS high performance device type
    Area = 5.99395 mm^2
    Peak Dynamic = 1.53193 W
    Subthreshold Leakage = 0.807821 W
    Gate Leakage = 0.200969 W
    Runtime Dynamic = 0.200351 W

  Total L2s: 
  Device Type= ITRS high performance device type
    Area = 8.81041 mm^2
    Peak Dynamic = 0.0566863 W
    Subthreshold Leakage = 0.819757 W
    Gate Leakage = 0.137044 W
    Runtime Dynamic = 0.00110443 W

  Total First Level Directory: 
  Device Type= ITRS high performance device type
    Area = 0.309852 mm^2
    Peak Dynamic = 0.00383535 W
    Subthreshold Leakage = 0.021481 W
    Gate Leakage = 0.00440768 W
    Runtime Dynamic = 6.79111e-10 W

  Total NoCs (Network/Bus): 
  Device Type= ITRS high performance device type
    Area = 0.0224446 mm^2
    Peak Dynamic = 0.0661529 W
    Subthreshold Leakage = 0.00215164 W
    Gate Leakage = 0.000523911 W
    Runtime Dynamic = 0 W

  Total MCs: 1 Memory Controllers 
  Device Type= ITRS high performance device type
    Area = 0.255133 mm^2
    Peak Dynamic = 0.178272 W
    Subthreshold Leakage = 0.00209381 W
    Gate Leakage = 0.000765475 W
    Runtime Dynamic = 0.0178479 W

*****************************************************************************************
Core:
      Area = 2.99698 mm^2
      Peak Dynamic = 0.765963 W
      Subthreshold Leakage = 0.403911 W
      Gate Leakage = 0.100484 W
      Runtime Dynamic = 0.136122 W

      Instruction Fetch Unit:
        Area = 0.38248 mm^2
        Peak Dynamic = 0.145854 W
        Subthreshold Leakage = 0.022762 W
        Gate Leakage = 0.00524774 W
        Runtime Dynamic = 0.0169099 W

      Load Store Unit:
        Area = 0.09045 mm^2
        Peak Dynamic = 0.0711095 W
        Subthreshold Leakage = 0.00674 W
        Gate Leakage = 0.00240948 W
        Runtime Dynamic = 0.0210433 W

      Memory Management Unit:
        Area = 0.0537643 mm^2
        Peak Dynamic = 0.0361709 W
        Subthreshold Leakage = 0.00427823 W
        Gate Leakage = 0.00186514 W
        Runtime Dynamic = 0.02125 W

      Execution Unit:
        Area = 1.60685 mm^2
        Peak Dynamic = 0.512829 W
        Subthreshold Leakage = 0.23127 W
        Gate Leakage = 0.0571502 W
        Runtime Dynamic = 0.0769191 W

*****************************************************************************************
Core:
      Area = 2.99698 mm^2
      Peak Dynamic = 0.765963 W
      Subthreshold Leakage = 0.403911 W
      Gate Leakage = 0.100484 W
      Runtime Dynamic = 0.0642291 W

      Instruction Fetch Unit:
        Area = 0.38248 mm^2
        Peak Dynamic = 0.145854 W
        Subthreshold Leakage = 0.022762 W
        Gate Leakage = 0.00524774 W
        Runtime Dynamic = 0.0160279 W

      Load Store Unit:
        Area = 0.09045 mm^2
        Peak Dynamic = 0.0711095 W
        Subthreshold Leakage = 0.00674 W
        Gate Leakage = 0.00240948 W
        Runtime Dynamic = 0.0160423 W

      Memory Management Unit:
        Area = 0.0537643 mm^2
        Peak Dynamic = 0.0361709 W
        Subthreshold Leakage = 0.00427823 W
        Gate Leakage = 0.00186514 W
        Runtime Dynamic = 0.016028 W

      Execution Unit:
        Area = 1.60685 mm^2
        Peak Dynamic = 0.512829 W
        Subthreshold Leakage = 0.23127 W
        Gate Leakage = 0.0571502 W
        Runtime Dynamic = 0.0161309 W

*****************************************************************************************
L2
      Area = 8.81041 mm^2
      Peak Dynamic = 0.0566863 W
      Subthreshold Leakage = 0.819757 W
      Gate Leakage = 0.137044 W
      Runtime Dynamic = 0.00110443 W

*****************************************************************************************
First Level Directory
      Area = 0.309852 mm^2
      Peak Dynamic = 0.00383535 W
      Subthreshold Leakage = 0.021481 W
      Gate Leakage = 0.00440768 W
      Runtime Dynamic = 6.79111e-10 W

*****************************************************************************************
Memory Controller:
      Area = 0.255133 mm^2
      Peak Dynamic = 0.178272 W
      Subthreshold Leakage = 0.00209381 W
      Gate Leakage = 0.000765475 W
      Runtime Dynamic = 0.0178479 W

      Front End Engine:
        Area = 0.218778 mm^2
        Peak Dynamic = 0.0596299 W
        Subthreshold Leakage = 0.00143115 W
        Gate Leakage = 0.000322201 W
        Runtime Dynamic = 0.005966 W

      Transaction Engine:
        Area = 0.036355 mm^2
        Peak Dynamic = 0.118642 W
        Subthreshold Leakage = 0.000662658 W
        Gate Leakage = 0.000443275 W
        Runtime Dynamic = 0.0118819 W

*****************************************************************************************
BUSES
      Area = 0.0224446 mm^2
      Peak Dynamic = 0.0661529 W
      Subthreshold Leakage = 0.00215164 W
      Gate Leakage = 0.000523911 W
      Runtime Dynamic = 0 W

      Bus: 
        Area = 0.0224446 mm^2
        Peak Dynamic = 0.0661529 W
        Subthreshold Leakage = 0.00215164 W
        Gate Leakage = 0.000523911 W
        Runtime Dynamic = 0 W

*****************************************************************************************

McPAT (version 0.8 of Aug, 2010) results (current print level is 2, please increase print level to see the details in components): 
*****************************************************************************************
  Technology 32 nm
  Interconnect metal projection= aggressive interconnect technology projection
  Core clock Rate(MHz) 2000

*****************************************************************************************
Processor: 
  Area = 15.3918 mm^2
  Peak Power = 3.83389 W
  Total Leakage = 1.99701 W
  Peak Dynamic = 1.83687 W
  Subthreshold Leakage = 1.65331 W
  Gate Leakage = 0.343709 W
  Runtime Dynamic = 0.226054 W

  Total Cores: 2 cores 
  Device Type= ITRS high performance device type
    Area = 5.99395 mm^2
    Peak Dynamic = 1.53193 W
    Subthreshold Leakage = 0.807821 W
    Gate Leakage = 0.200969 W
    Runtime Dynamic = 0.204945 W

  Total L2s: 
  Device Type= ITRS high performance device type
    Area = 8.81041 mm^2
    Peak Dynamic = 0.0566863 W
    Subthreshold Leakage = 0.819757 W
    Gate Leakage = 0.137044 W
    Runtime Dynamic = 0.00311812 W

  Total First Level Directory: 
  Device Type= ITRS high performance device type
    Area = 0.309852 mm^2
    Peak Dynamic = 0.00383535 W
    Subthreshold Leakage = 0.021481 W
    Gate Leakage = 0.00440768 W
    Runtime Dynamic = 6.79111e-10 W

  Total NoCs (Network/Bus): 
  Device Type= ITRS high performance device type
    Area = 0.0224446 mm^2
    Peak Dynamic = 0.0661529 W
    Subthreshold Leakage = 0.00215164 W
    Gate Leakage = 0.000523911 W
    Runtime Dynamic = 0 W

  Total MCs: 1 Memory Controllers 
  Device Type= ITRS high performance device type
    Area = 0.255133 mm^2
    Peak Dynamic = 0.178272 W
    Subthreshold Leakage = 0.00209381 W
    Gate Leakage = 0.000765475 W
    Runtime Dynamic = 0.0179914 W

*****************************************************************************************
Core:
      Area = 2.99698 mm^2
      Peak Dynamic = 0.765963 W
      Subthreshold Leakage = 0.403911 W
      Gate Leakage = 0.100484 W
      Runtime Dynamic = 0.128921 W

      Instruction Fetch Unit:
        Area = 0.38248 mm^2
        Peak Dynamic = 0.145854 W
        Subthreshold Leakage = 0.022762 W
        Gate Leakage = 0.00524774 W
        Runtime Dynamic = 0.0166117 W

      Load Store Unit:
        Area = 0.09045 mm^2
        Peak Dynamic = 0.0711095 W
        Subthreshold Leakage = 0.00674 W
        Gate Leakage = 0.00240948 W
        Runtime Dynamic = 0.0219195 W

      Memory Management Unit:
        Area = 0.0537643 mm^2
        Peak Dynamic = 0.0361709 W
        Subthreshold Leakage = 0.00427823 W
        Gate Leakage = 0.00186514 W
        Runtime Dynamic = 0.0204013 W

      Execution Unit:
        Area = 1.60685 mm^2
        Peak Dynamic = 0.512829 W
        Subthreshold Leakage = 0.23127 W
        Gate Leakage = 0.0571502 W
        Runtime Dynamic = 0.0699885 W

*****************************************************************************************
Core:
      Area = 2.99698 mm^2
      Peak Dynamic = 0.765963 W
      Subthreshold Leakage = 0.403911 W
      Gate Leakage = 0.100484 W
      Runtime Dynamic = 0.0760239 W

      Instruction Fetch Unit:
        Area = 0.38248 mm^2
        Peak Dynamic = 0.145854 W
        Subthreshold Leakage = 0.022762 W
        Gate Leakage = 0.00524774 W
        Runtime Dynamic = 0.0176912 W

      Load Store Unit:
        Area = 0.09045 mm^2
        Peak Dynamic = 0.0711095 W
        Subthreshold Leakage = 0.00674 W
        Gate Leakage = 0.00240948 W
        Runtime Dynamic = 0.0180844 W

      Memory Management Unit:
        Area = 0.0537643 mm^2
        Peak Dynamic = 0.0361709 W
        Subthreshold Leakage = 0.00427823 W
        Gate Leakage = 0.00186514 W
        Runtime Dynamic = 0.0176479 W

      Execution Unit:
        Area = 1.60685 mm^2
        Peak Dynamic = 0.512829 W
        Subthreshold Leakage = 0.23127 W
        Gate Leakage = 0.0571502 W
        Runtime Dynamic = 0.0226003 W

*****************************************************************************************
L2
      Area = 8.81041 mm^2
      Peak Dynamic = 0.0566863 W
      Subthreshold Leakage = 0.819757 W
      Gate Leakage = 0.137044 W
      Runtime Dynamic = 0.00311812 W

*****************************************************************************************
First Level Directory
      Area = 0.309852 mm^2
      Peak Dynamic = 0.00383535 W
      Subthreshold Leakage = 0.021481 W
      Gate Leakage = 0.00440768 W
      Runtime Dynamic = 6.79111e-10 W

*****************************************************************************************
Memory Controller:
      Area = 0.255133 mm^2
      Peak Dynamic = 0.178272 W
      Subthreshold Leakage = 0.00209381 W
      Gate Leakage = 0.000765475 W
      Runtime Dynamic = 0.0179914 W

      Front End Engine:
        Area = 0.218778 mm^2
        Peak Dynamic = 0.0596299 W
        Subthreshold Leakage = 0.00143115 W
        Gate Leakage = 0.000322201 W
        Runtime Dynamic = 0.00598684 W

      Transaction Engine:
        Area = 0.036355 mm^2
        Peak Dynamic = 0.118642 W
        Subthreshold Leakage = 0.000662658 W
        Gate Leakage = 0.000443275 W
        Runtime Dynamic = 0.0120046 W

*****************************************************************************************
BUSES
      Area = 0.0224446 mm^2
      Peak Dynamic = 0.0661529 W
      Subthreshold Leakage = 0.00215164 W
      Gate Leakage = 0.000523911 W
      Runtime Dynamic = 0 W

      Bus: 
        Area = 0.0224446 mm^2
        Peak Dynamic = 0.0661529 W
        Subthreshold Leakage = 0.00215164 W
        Gate Leakage = 0.000523911 W
        Runtime Dynamic = 0 W

*****************************************************************************************

McPAT (version 0.8 of Aug, 2010) results (current print level is 2, please increase print level to see the details in components): 
*****************************************************************************************
  Technology 32 nm
  Interconnect metal projection= aggressive interconnect technology projection
  Core clock Rate(MHz) 2000

*****************************************************************************************
Processor: 
  Area = 15.3918 mm^2
  Peak Power = 3.83389 W
  Total Leakage = 1.99701 W
  Peak Dynamic = 1.83687 W
  Subthreshold Leakage = 1.65331 W
  Gate Leakage = 0.343709 W
  Runtime Dynamic = 0.22005 W

  Total Cores: 2 cores 
  Device Type= ITRS high performance device type
    Area = 5.99395 mm^2
    Peak Dynamic = 1.53193 W
    Subthreshold Leakage = 0.807821 W
    Gate Leakage = 0.200969 W
    Runtime Dynamic = 0.201157 W

  Total L2s: 
  Device Type= ITRS high performance device type
    Area = 8.81041 mm^2
    Peak Dynamic = 0.0566863 W
    Subthreshold Leakage = 0.819757 W
    Gate Leakage = 0.137044 W
    Runtime Dynamic = 0.00105037 W

  Total First Level Directory: 
  Device Type= ITRS high performance device type
    Area = 0.309852 mm^2
    Peak Dynamic = 0.00383535 W
    Subthreshold Leakage = 0.021481 W
    Gate Leakage = 0.00440768 W
    Runtime Dynamic = 6.79111e-10 W

  Total NoCs (Network/Bus): 
  Device Type= ITRS high performance device type
    Area = 0.0224446 mm^2
    Peak Dynamic = 0.0661529 W
    Subthreshold Leakage = 0.00215164 W
    Gate Leakage = 0.000523911 W
    Runtime Dynamic = 0 W

  Total MCs: 1 Memory Controllers 
  Device Type= ITRS high performance device type
    Area = 0.255133 mm^2
    Peak Dynamic = 0.178272 W
    Subthreshold Leakage = 0.00209381 W
    Gate Leakage = 0.000765475 W
    Runtime Dynamic = 0.017842 W

*****************************************************************************************
Core:
      Area = 2.99698 mm^2
      Peak Dynamic = 0.765963 W
      Subthreshold Leakage = 0.403911 W
      Gate Leakage = 0.100484 W
      Runtime Dynamic = 0.136907 W

      Instruction Fetch Unit:
        Area = 0.38248 mm^2
        Peak Dynamic = 0.145854 W
        Subthreshold Leakage = 0.022762 W
        Gate Leakage = 0.00524774 W
        Runtime Dynamic = 0.0168446 W

      Load Store Unit:
        Area = 0.09045 mm^2
        Peak Dynamic = 0.0711095 W
        Subthreshold Leakage = 0.00674 W
        Gate Leakage = 0.00240948 W
        Runtime Dynamic = 0.0211059 W

      Memory Management Unit:
        Area = 0.0537643 mm^2
        Peak Dynamic = 0.0361709 W
        Subthreshold Leakage = 0.00427823 W
        Gate Leakage = 0.00186514 W
        Runtime Dynamic = 0.0212849 W

      Execution Unit:
        Area = 1.60685 mm^2
        Peak Dynamic = 0.512829 W
        Subthreshold Leakage = 0.23127 W
        Gate Leakage = 0.0571502 W
        Runtime Dynamic = 0.0776713 W

*****************************************************************************************
Core:
      Area = 2.99698 mm^2
      Peak Dynamic = 0.765963 W
      Subthreshold Leakage = 0.403911 W
      Gate Leakage = 0.100484 W
      Runtime Dynamic = 0.0642505 W

      Instruction Fetch Unit:
        Area = 0.38248 mm^2
        Peak Dynamic = 0.145854 W
        Subthreshold Leakage = 0.022762 W
        Gate Leakage = 0.00524774 W
        Runtime Dynamic = 0.016033 W

      Load Store Unit:
        Area = 0.09045 mm^2
        Peak Dynamic = 0.0711095 W
        Subthreshold Leakage = 0.00674 W
        Gate Leakage = 0.00240948 W
        Runtime Dynamic = 0.0160476 W

      Memory Management Unit:
        Area = 0.0537643 mm^2
        Peak Dynamic = 0.0361709 W
        Subthreshold Leakage = 0.00427823 W
        Gate Leakage = 0.00186514 W
        Runtime Dynamic = 0.0160332 W

      Execution Unit:
        Area = 1.60685 mm^2
        Peak Dynamic = 0.512829 W
        Subthreshold Leakage = 0.23127 W
        Gate Leakage = 0.0571502 W
        Runtime Dynamic = 0.0161368 W

*****************************************************************************************
L2
      Area = 8.81041 mm^2
      Peak Dynamic = 0.0566863 W
      Subthreshold Leakage = 0.819757 W
      Gate Leakage = 0.137044 W
      Runtime Dynamic = 0.00105037 W

*****************************************************************************************
First Level Directory
      Area = 0.309852 mm^2
      Peak Dynamic = 0.00383535 W
      Subthreshold Leakage = 0.021481 W
      Gate Leakage = 0.00440768 W
      Runtime Dynamic = 6.79111e-10 W

*****************************************************************************************
Memory Controller:
      Area = 0.255133 mm^2
      Peak Dynamic = 0.178272 W
      Subthreshold Leakage = 0.00209381 W
      Gate Leakage = 0.000765475 W
      Runtime Dynamic = 0.017842 W

      Front End Engine:
        Area = 0.218778 mm^2
        Peak Dynamic = 0.0596299 W
        Subthreshold Leakage = 0.00143115 W
        Gate Leakage = 0.000322201 W
        Runtime Dynamic = 0.00596515 W

      Transaction Engine:
        Area = 0.036355 mm^2
        Peak Dynamic = 0.118642 W
        Subthreshold Leakage = 0.000662658 W
        Gate Leakage = 0.000443275 W
        Runtime Dynamic = 0.0118769 W

*****************************************************************************************
BUSES
      Area = 0.0224446 mm^2
      Peak Dynamic = 0.0661529 W
      Subthreshold Leakage = 0.00215164 W
      Gate Leakage = 0.000523911 W
      Runtime Dynamic = 0 W

      Bus: 
        Area = 0.0224446 mm^2
        Peak Dynamic = 0.0661529 W
        Subthreshold Leakage = 0.00215164 W
        Gate Leakage = 0.000523911 W
        Runtime Dynamic = 0 W

*****************************************************************************************

McPAT (version 0.8 of Aug, 2010) results (current print level is 2, please increase print level to see the details in components): 
*****************************************************************************************
  Technology 32 nm
  Interconnect metal projection= aggressive interconnect technology projection
  Core clock Rate(MHz) 2000

*****************************************************************************************
Processor: 
  Area = 15.3918 mm^2
  Peak Power = 3.83389 W
  Total Leakage = 1.99701 W
  Peak Dynamic = 1.83687 W
  Subthreshold Leakage = 1.65331 W
  Gate Leakage = 0.343709 W
  Runtime Dynamic = 0.218385 W

  Total Cores: 2 cores 
  Device Type= ITRS high performance device type
    Area = 5.99395 mm^2
    Peak Dynamic = 1.53193 W
    Subthreshold Leakage = 0.807821 W
    Gate Leakage = 0.200969 W
    Runtime Dynamic = 0.197449 W

  Total L2s: 
  Device Type= ITRS high performance device type
    Area = 8.81041 mm^2
    Peak Dynamic = 0.0566863 W
    Subthreshold Leakage = 0.819757 W
    Gate Leakage = 0.137044 W
    Runtime Dynamic = 0.00296414 W

  Total First Level Directory: 
  Device Type= ITRS high performance device type
    Area = 0.309852 mm^2
    Peak Dynamic = 0.00383535 W
    Subthreshold Leakage = 0.021481 W
    Gate Leakage = 0.00440768 W
    Runtime Dynamic = 6.79111e-10 W

  Total NoCs (Network/Bus): 
  Device Type= ITRS high performance device type
    Area = 0.0224446 mm^2
    Peak Dynamic = 0.0661529 W
    Subthreshold Leakage = 0.00215164 W
    Gate Leakage = 0.000523911 W
    Runtime Dynamic = 0 W

  Total MCs: 1 Memory Controllers 
  Device Type= ITRS high performance device type
    Area = 0.255133 mm^2
    Peak Dynamic = 0.178272 W
    Subthreshold Leakage = 0.00209381 W
    Gate Leakage = 0.000765475 W
    Runtime Dynamic = 0.0179717 W

*****************************************************************************************
Core:
      Area = 2.99698 mm^2
      Peak Dynamic = 0.765963 W
      Subthreshold Leakage = 0.403911 W
      Gate Leakage = 0.100484 W
      Runtime Dynamic = 0.129542 W

      Instruction Fetch Unit:
        Area = 0.38248 mm^2
        Peak Dynamic = 0.145854 W
        Subthreshold Leakage = 0.022762 W
        Gate Leakage = 0.00524774 W
        Runtime Dynamic = 0.0167279 W

      Load Store Unit:
        Area = 0.09045 mm^2
        Peak Dynamic = 0.0711095 W
        Subthreshold Leakage = 0.00674 W
        Gate Leakage = 0.00240948 W
        Runtime Dynamic = 0.0216064 W

      Memory Management Unit:
        Area = 0.0537643 mm^2
        Peak Dynamic = 0.0361709 W
        Subthreshold Leakage = 0.00427823 W
        Gate Leakage = 0.00186514 W
        Runtime Dynamic = 0.0205342 W

      Execution Unit:
        Area = 1.60685 mm^2
        Peak Dynamic = 0.512829 W
        Subthreshold Leakage = 0.23127 W
        Gate Leakage = 0.0571502 W
        Runtime Dynamic = 0.0706738 W

*****************************************************************************************
Core:
      Area = 2.99698 mm^2
      Peak Dynamic = 0.765963 W
      Subthreshold Leakage = 0.403911 W
      Gate Leakage = 0.100484 W
      Runtime Dynamic = 0.0679071 W

      Instruction Fetch Unit:
        Area = 0.38248 mm^2
        Peak Dynamic = 0.145854 W
        Subthreshold Leakage = 0.022762 W
        Gate Leakage = 0.00524774 W
        Runtime Dynamic = 0.0160845 W

      Load Store Unit:
        Area = 0.09045 mm^2
        Peak Dynamic = 0.0711095 W
        Subthreshold Leakage = 0.00674 W
        Gate Leakage = 0.00240948 W
        Runtime Dynamic = 0.0164421 W

      Memory Management Unit:
        Area = 0.0537643 mm^2
        Peak Dynamic = 0.0361709 W
        Subthreshold Leakage = 0.00427823 W
        Gate Leakage = 0.00186514 W
        Runtime Dynamic = 0.0160396 W

      Execution Unit:
        Area = 1.60685 mm^2
        Peak Dynamic = 0.512829 W
        Subthreshold Leakage = 0.23127 W
        Gate Leakage = 0.0571502 W
        Runtime Dynamic = 0.019341 W

*****************************************************************************************
L2
      Area = 8.81041 mm^2
      Peak Dynamic = 0.0566863 W
      Subthreshold Leakage = 0.819757 W
      Gate Leakage = 0.137044 W
      Runtime Dynamic = 0.00296414 W

*****************************************************************************************
First Level Directory
      Area = 0.309852 mm^2
      Peak Dynamic = 0.00383535 W
      Subthreshold Leakage = 0.021481 W
      Gate Leakage = 0.00440768 W
      Runtime Dynamic = 6.79111e-10 W

*****************************************************************************************
Memory Controller:
      Area = 0.255133 mm^2
      Peak Dynamic = 0.178272 W
      Subthreshold Leakage = 0.00209381 W
      Gate Leakage = 0.000765475 W
      Runtime Dynamic = 0.0179717 W

      Front End Engine:
        Area = 0.218778 mm^2
        Peak Dynamic = 0.0596299 W
        Subthreshold Leakage = 0.00143115 W
        Gate Leakage = 0.000322201 W
        Runtime Dynamic = 0.00598398 W

      Transaction Engine:
        Area = 0.036355 mm^2
        Peak Dynamic = 0.118642 W
        Subthreshold Leakage = 0.000662658 W
        Gate Leakage = 0.000443275 W
        Runtime Dynamic = 0.0119877 W

*****************************************************************************************
BUSES
      Area = 0.0224446 mm^2
      Peak Dynamic = 0.0661529 W
      Subthreshold Leakage = 0.00215164 W
      Gate Leakage = 0.000523911 W
      Runtime Dynamic = 0 W

      Bus: 
        Area = 0.0224446 mm^2
        Peak Dynamic = 0.0661529 W
        Subthreshold Leakage = 0.00215164 W
        Gate Leakage = 0.000523911 W
        Runtime Dynamic = 0 W

*****************************************************************************************

McPAT (version 0.8 of Aug, 2010) results (current print level is 2, please increase print level to see the details in components): 
*****************************************************************************************
  Technology 32 nm
  Interconnect metal projection= aggressive interconnect technology projection
  Core clock Rate(MHz) 2000

*****************************************************************************************
Processor: 
  Area = 15.3918 mm^2
  Peak Power = 3.83389 W
  Total Leakage = 1.99701 W
  Peak Dynamic = 1.83687 W
  Subthreshold Leakage = 1.65331 W
  Gate Leakage = 0.343709 W
  Runtime Dynamic = 0.219787 W

  Total Cores: 2 cores 
  Device Type= ITRS high performance device type
    Area = 5.99395 mm^2
    Peak Dynamic = 1.53193 W
    Subthreshold Leakage = 0.807821 W
    Gate Leakage = 0.200969 W
    Runtime Dynamic = 0.200836 W

  Total L2s: 
  Device Type= ITRS high performance device type
    Area = 8.81041 mm^2
    Peak Dynamic = 0.0566863 W
    Subthreshold Leakage = 0.819757 W
    Gate Leakage = 0.137044 W
    Runtime Dynamic = 0.00110552 W

  Total First Level Directory: 
  Device Type= ITRS high performance device type
    Area = 0.309852 mm^2
    Peak Dynamic = 0.00383535 W
    Subthreshold Leakage = 0.021481 W
    Gate Leakage = 0.00440768 W
    Runtime Dynamic = 6.79111e-10 W

  Total NoCs (Network/Bus): 
  Device Type= ITRS high performance device type
    Area = 0.0224446 mm^2
    Peak Dynamic = 0.0661529 W
    Subthreshold Leakage = 0.00215164 W
    Gate Leakage = 0.000523911 W
    Runtime Dynamic = 0 W

  Total MCs: 1 Memory Controllers 
  Device Type= ITRS high performance device type
    Area = 0.255133 mm^2
    Peak Dynamic = 0.178272 W
    Subthreshold Leakage = 0.00209381 W
    Gate Leakage = 0.000765475 W
    Runtime Dynamic = 0.0178454 W

*****************************************************************************************
Core:
      Area = 2.99698 mm^2
      Peak Dynamic = 0.765963 W
      Subthreshold Leakage = 0.403911 W
      Gate Leakage = 0.100484 W
      Runtime Dynamic = 0.136587 W

      Instruction Fetch Unit:
        Area = 0.38248 mm^2
        Peak Dynamic = 0.145854 W
        Subthreshold Leakage = 0.022762 W
        Gate Leakage = 0.00524774 W
        Runtime Dynamic = 0.0167277 W

      Load Store Unit:
        Area = 0.09045 mm^2
        Peak Dynamic = 0.0711095 W
        Subthreshold Leakage = 0.00674 W
        Gate Leakage = 0.00240948 W
        Runtime Dynamic = 0.0214372 W

      Memory Management Unit:
        Area = 0.0537643 mm^2
        Peak Dynamic = 0.0361709 W
        Subthreshold Leakage = 0.00427823 W
        Gate Leakage = 0.00186514 W
        Runtime Dynamic = 0.0211788 W

      Execution Unit:
        Area = 1.60685 mm^2
        Peak Dynamic = 0.512829 W
        Subthreshold Leakage = 0.23127 W
        Gate Leakage = 0.0571502 W
        Runtime Dynamic = 0.0772429 W

*****************************************************************************************
Core:
      Area = 2.99698 mm^2
      Peak Dynamic = 0.765963 W
      Subthreshold Leakage = 0.403911 W
      Gate Leakage = 0.100484 W
      Runtime Dynamic = 0.0642498 W

      Instruction Fetch Unit:
        Area = 0.38248 mm^2
        Peak Dynamic = 0.145854 W
        Subthreshold Leakage = 0.022762 W
        Gate Leakage = 0.00524774 W
        Runtime Dynamic = 0.0160329 W

      Load Store Unit:
        Area = 0.09045 mm^2
        Peak Dynamic = 0.0711095 W
        Subthreshold Leakage = 0.00674 W
        Gate Leakage = 0.00240948 W
        Runtime Dynamic = 0.0160474 W

      Memory Management Unit:
        Area = 0.0537643 mm^2
        Peak Dynamic = 0.0361709 W
        Subthreshold Leakage = 0.00427823 W
        Gate Leakage = 0.00186514 W
        Runtime Dynamic = 0.0160331 W

      Execution Unit:
        Area = 1.60685 mm^2
        Peak Dynamic = 0.512829 W
        Subthreshold Leakage = 0.23127 W
        Gate Leakage = 0.0571502 W
        Runtime Dynamic = 0.0161364 W

*****************************************************************************************
L2
      Area = 8.81041 mm^2
      Peak Dynamic = 0.0566863 W
      Subthreshold Leakage = 0.819757 W
      Gate Leakage = 0.137044 W
      Runtime Dynamic = 0.00110552 W

*****************************************************************************************
First Level Directory
      Area = 0.309852 mm^2
      Peak Dynamic = 0.00383535 W
      Subthreshold Leakage = 0.021481 W
      Gate Leakage = 0.00440768 W
      Runtime Dynamic = 6.79111e-10 W

*****************************************************************************************
Memory Controller:
      Area = 0.255133 mm^2
      Peak Dynamic = 0.178272 W
      Subthreshold Leakage = 0.00209381 W
      Gate Leakage = 0.000765475 W
      Runtime Dynamic = 0.0178454 W

      Front End Engine:
        Area = 0.218778 mm^2
        Peak Dynamic = 0.0596299 W
        Subthreshold Leakage = 0.00143115 W
        Gate Leakage = 0.000322201 W
        Runtime Dynamic = 0.00596563 W

      Transaction Engine:
        Area = 0.036355 mm^2
        Peak Dynamic = 0.118642 W
        Subthreshold Leakage = 0.000662658 W
        Gate Leakage = 0.000443275 W
        Runtime Dynamic = 0.0118797 W

*****************************************************************************************
BUSES
      Area = 0.0224446 mm^2
      Peak Dynamic = 0.0661529 W
      Subthreshold Leakage = 0.00215164 W
      Gate Leakage = 0.000523911 W
      Runtime Dynamic = 0 W

      Bus: 
        Area = 0.0224446 mm^2
        Peak Dynamic = 0.0661529 W
        Subthreshold Leakage = 0.00215164 W
        Gate Leakage = 0.000523911 W
        Runtime Dynamic = 0 W

*****************************************************************************************

McPAT (version 0.8 of Aug, 2010) results (current print level is 2, please increase print level to see the details in components): 
*****************************************************************************************
  Technology 32 nm
  Interconnect metal projection= aggressive interconnect technology projection
  Core clock Rate(MHz) 2000

*****************************************************************************************
Processor: 
  Area = 15.3918 mm^2
  Peak Power = 3.83389 W
  Total Leakage = 1.99701 W
  Peak Dynamic = 1.83687 W
  Subthreshold Leakage = 1.65331 W
  Gate Leakage = 0.343709 W
  Runtime Dynamic = 0.226537 W

  Total Cores: 2 cores 
  Device Type= ITRS high performance device type
    Area = 5.99395 mm^2
    Peak Dynamic = 1.53193 W
    Subthreshold Leakage = 0.807821 W
    Gate Leakage = 0.200969 W
    Runtime Dynamic = 0.205556 W

  Total L2s: 
  Device Type= ITRS high performance device type
    Area = 8.81041 mm^2
    Peak Dynamic = 0.0566863 W
    Subthreshold Leakage = 0.819757 W
    Gate Leakage = 0.137044 W
    Runtime Dynamic = 0.00300436 W

  Total First Level Directory: 
  Device Type= ITRS high performance device type
    Area = 0.309852 mm^2
    Peak Dynamic = 0.00383535 W
    Subthreshold Leakage = 0.021481 W
    Gate Leakage = 0.00440768 W
    Runtime Dynamic = 6.79111e-10 W

  Total NoCs (Network/Bus): 
  Device Type= ITRS high performance device type
    Area = 0.0224446 mm^2
    Peak Dynamic = 0.0661529 W
    Subthreshold Leakage = 0.00215164 W
    Gate Leakage = 0.000523911 W
    Runtime Dynamic = 0 W

  Total MCs: 1 Memory Controllers 
  Device Type= ITRS high performance device type
    Area = 0.255133 mm^2
    Peak Dynamic = 0.178272 W
    Subthreshold Leakage = 0.00209381 W
    Gate Leakage = 0.000765475 W
    Runtime Dynamic = 0.0179768 W

*****************************************************************************************
Core:
      Area = 2.99698 mm^2
      Peak Dynamic = 0.765963 W
      Subthreshold Leakage = 0.403911 W
      Gate Leakage = 0.100484 W
      Runtime Dynamic = 0.129545 W

      Instruction Fetch Unit:
        Area = 0.38248 mm^2
        Peak Dynamic = 0.145854 W
        Subthreshold Leakage = 0.022762 W
        Gate Leakage = 0.00524774 W
        Runtime Dynamic = 0.0168417 W

      Load Store Unit:
        Area = 0.09045 mm^2
        Peak Dynamic = 0.0711095 W
        Subthreshold Leakage = 0.00674 W
        Gate Leakage = 0.00240948 W
        Runtime Dynamic = 0.0212654 W

      Memory Management Unit:
        Area = 0.0537643 mm^2
        Peak Dynamic = 0.0361709 W
        Subthreshold Leakage = 0.00427823 W
        Gate Leakage = 0.00186514 W
        Runtime Dynamic = 0.0206103 W

      Execution Unit:
        Area = 1.60685 mm^2
        Peak Dynamic = 0.512829 W
        Subthreshold Leakage = 0.23127 W
        Gate Leakage = 0.0571502 W
        Runtime Dynamic = 0.0708278 W

*****************************************************************************************
Core:
      Area = 2.99698 mm^2
      Peak Dynamic = 0.765963 W
      Subthreshold Leakage = 0.403911 W
      Gate Leakage = 0.100484 W
      Runtime Dynamic = 0.0760108 W

      Instruction Fetch Unit:
        Area = 0.38248 mm^2
        Peak Dynamic = 0.145854 W
        Subthreshold Leakage = 0.022762 W
        Gate Leakage = 0.00524774 W
        Runtime Dynamic = 0.0176911 W

      Load Store Unit:
        Area = 0.09045 mm^2
        Peak Dynamic = 0.0711095 W
        Subthreshold Leakage = 0.00674 W
        Gate Leakage = 0.00240948 W
        Runtime Dynamic = 0.018082 W

      Memory Management Unit:
        Area = 0.0537643 mm^2
        Peak Dynamic = 0.0361709 W
        Subthreshold Leakage = 0.00427823 W
        Gate Leakage = 0.00186514 W
        Runtime Dynamic = 0.0176478 W

      Execution Unit:
        Area = 1.60685 mm^2
        Peak Dynamic = 0.512829 W
        Subthreshold Leakage = 0.23127 W
        Gate Leakage = 0.0571502 W
        Runtime Dynamic = 0.0225898 W

*****************************************************************************************
L2
      Area = 8.81041 mm^2
      Peak Dynamic = 0.0566863 W
      Subthreshold Leakage = 0.819757 W
      Gate Leakage = 0.137044 W
      Runtime Dynamic = 0.00300436 W

*****************************************************************************************
First Level Directory
      Area = 0.309852 mm^2
      Peak Dynamic = 0.00383535 W
      Subthreshold Leakage = 0.021481 W
      Gate Leakage = 0.00440768 W
      Runtime Dynamic = 6.79111e-10 W

*****************************************************************************************
Memory Controller:
      Area = 0.255133 mm^2
      Peak Dynamic = 0.178272 W
      Subthreshold Leakage = 0.00209381 W
      Gate Leakage = 0.000765475 W
      Runtime Dynamic = 0.0179768 W

      Front End Engine:
        Area = 0.218778 mm^2
        Peak Dynamic = 0.0596299 W
        Subthreshold Leakage = 0.00143115 W
        Gate Leakage = 0.000322201 W
        Runtime Dynamic = 0.00598471 W

      Transaction Engine:
        Area = 0.036355 mm^2
        Peak Dynamic = 0.118642 W
        Subthreshold Leakage = 0.000662658 W
        Gate Leakage = 0.000443275 W
        Runtime Dynamic = 0.011992 W

*****************************************************************************************
BUSES
      Area = 0.0224446 mm^2
      Peak Dynamic = 0.0661529 W
      Subthreshold Leakage = 0.00215164 W
      Gate Leakage = 0.000523911 W
      Runtime Dynamic = 0 W

      Bus: 
        Area = 0.0224446 mm^2
        Peak Dynamic = 0.0661529 W
        Subthreshold Leakage = 0.00215164 W
        Gate Leakage = 0.000523911 W
        Runtime Dynamic = 0 W

*****************************************************************************************

McPAT (version 0.8 of Aug, 2010) results (current print level is 2, please increase print level to see the details in components): 
*****************************************************************************************
  Technology 32 nm
  Interconnect metal projection= aggressive interconnect technology projection
  Core clock Rate(MHz) 2000

*****************************************************************************************
Processor: 
  Area = 15.3918 mm^2
  Peak Power = 3.83389 W
  Total Leakage = 1.99701 W
  Peak Dynamic = 1.83687 W
  Subthreshold Leakage = 1.65331 W
  Gate Leakage = 0.343709 W
  Runtime Dynamic = 0.219519 W

  Total Cores: 2 cores 
  Device Type= ITRS high performance device type
    Area = 5.99395 mm^2
    Peak Dynamic = 1.53193 W
    Subthreshold Leakage = 0.807821 W
    Gate Leakage = 0.200969 W
    Runtime Dynamic = 0.200511 W

  Total L2s: 
  Device Type= ITRS high performance device type
    Area = 8.81041 mm^2
    Peak Dynamic = 0.0566863 W
    Subthreshold Leakage = 0.819757 W
    Gate Leakage = 0.137044 W
    Runtime Dynamic = 0.00115698 W

  Total First Level Directory: 
  Device Type= ITRS high performance device type
    Area = 0.309852 mm^2
    Peak Dynamic = 0.00383535 W
    Subthreshold Leakage = 0.021481 W
    Gate Leakage = 0.00440768 W
    Runtime Dynamic = 6.79111e-10 W

  Total NoCs (Network/Bus): 
  Device Type= ITRS high performance device type
    Area = 0.0224446 mm^2
    Peak Dynamic = 0.0661529 W
    Subthreshold Leakage = 0.00215164 W
    Gate Leakage = 0.000523911 W
    Runtime Dynamic = 0 W

  Total MCs: 1 Memory Controllers 
  Device Type= ITRS high performance device type
    Area = 0.255133 mm^2
    Peak Dynamic = 0.178272 W
    Subthreshold Leakage = 0.00209381 W
    Gate Leakage = 0.000765475 W
    Runtime Dynamic = 0.0178517 W

*****************************************************************************************
Core:
      Area = 2.99698 mm^2
      Peak Dynamic = 0.765963 W
      Subthreshold Leakage = 0.403911 W
      Gate Leakage = 0.100484 W
      Runtime Dynamic = 0.13626 W

      Instruction Fetch Unit:
        Area = 0.38248 mm^2
        Peak Dynamic = 0.145854 W
        Subthreshold Leakage = 0.022762 W
        Gate Leakage = 0.00524774 W
        Runtime Dynamic = 0.0166144 W

      Load Store Unit:
        Area = 0.09045 mm^2
        Peak Dynamic = 0.0711095 W
        Subthreshold Leakage = 0.00674 W
        Gate Leakage = 0.00240948 W
        Runtime Dynamic = 0.021758 W

      Memory Management Unit:
        Area = 0.0537643 mm^2
        Peak Dynamic = 0.0361709 W
        Subthreshold Leakage = 0.00427823 W
        Gate Leakage = 0.00186514 W
        Runtime Dynamic = 0.0210748 W

      Execution Unit:
        Area = 1.60685 mm^2
        Peak Dynamic = 0.512829 W
        Subthreshold Leakage = 0.23127 W
        Gate Leakage = 0.0571502 W
        Runtime Dynamic = 0.076813 W

*****************************************************************************************
Core:
      Area = 2.99698 mm^2
      Peak Dynamic = 0.765963 W
      Subthreshold Leakage = 0.403911 W
      Gate Leakage = 0.100484 W
      Runtime Dynamic = 0.0642505 W

      Instruction Fetch Unit:
        Area = 0.38248 mm^2
        Peak Dynamic = 0.145854 W
        Subthreshold Leakage = 0.022762 W
        Gate Leakage = 0.00524774 W
        Runtime Dynamic = 0.0160331 W

      Load Store Unit:
        Area = 0.09045 mm^2
        Peak Dynamic = 0.0711095 W
        Subthreshold Leakage = 0.00674 W
        Gate Leakage = 0.00240948 W
        Runtime Dynamic = 0.0160476 W

      Memory Management Unit:
        Area = 0.0537643 mm^2
        Peak Dynamic = 0.0361709 W
        Subthreshold Leakage = 0.00427823 W
        Gate Leakage = 0.00186514 W
        Runtime Dynamic = 0.0160332 W

      Execution Unit:
        Area = 1.60685 mm^2
        Peak Dynamic = 0.512829 W
        Subthreshold Leakage = 0.23127 W
        Gate Leakage = 0.0571502 W
        Runtime Dynamic = 0.0161366 W

*****************************************************************************************
L2
      Area = 8.81041 mm^2
      Peak Dynamic = 0.0566863 W
      Subthreshold Leakage = 0.819757 W
      Gate Leakage = 0.137044 W
      Runtime Dynamic = 0.00115698 W

*****************************************************************************************
First Level Directory
      Area = 0.309852 mm^2
      Peak Dynamic = 0.00383535 W
      Subthreshold Leakage = 0.021481 W
      Gate Leakage = 0.00440768 W
      Runtime Dynamic = 6.79111e-10 W

*****************************************************************************************
Memory Controller:
      Area = 0.255133 mm^2
      Peak Dynamic = 0.178272 W
      Subthreshold Leakage = 0.00209381 W
      Gate Leakage = 0.000765475 W
      Runtime Dynamic = 0.0178517 W

      Front End Engine:
        Area = 0.218778 mm^2
        Peak Dynamic = 0.0596299 W
        Subthreshold Leakage = 0.00143115 W
        Gate Leakage = 0.000322201 W
        Runtime Dynamic = 0.00596656 W

      Transaction Engine:
        Area = 0.036355 mm^2
        Peak Dynamic = 0.118642 W
        Subthreshold Leakage = 0.000662658 W
        Gate Leakage = 0.000443275 W
        Runtime Dynamic = 0.0118852 W

*****************************************************************************************
BUSES
      Area = 0.0224446 mm^2
      Peak Dynamic = 0.0661529 W
      Subthreshold Leakage = 0.00215164 W
      Gate Leakage = 0.000523911 W
      Runtime Dynamic = 0 W

      Bus: 
        Area = 0.0224446 mm^2
        Peak Dynamic = 0.0661529 W
        Subthreshold Leakage = 0.00215164 W
        Gate Leakage = 0.000523911 W
        Runtime Dynamic = 0 W

*****************************************************************************************

McPAT (version 0.8 of Aug, 2010) results (current print level is 2, please increase print level to see the details in components): 
*****************************************************************************************
  Technology 32 nm
  Interconnect metal projection= aggressive interconnect technology projection
  Core clock Rate(MHz) 2000

*****************************************************************************************
Processor: 
  Area = 15.3918 mm^2
  Peak Power = 3.83389 W
  Total Leakage = 1.99701 W
  Peak Dynamic = 1.83687 W
  Subthreshold Leakage = 1.65331 W
  Gate Leakage = 0.343709 W
  Runtime Dynamic = 0.22002 W

  Total Cores: 2 cores 
  Device Type= ITRS high performance device type
    Area = 5.99395 mm^2
    Peak Dynamic = 1.53193 W
    Subthreshold Leakage = 0.807821 W
    Gate Leakage = 0.200969 W
    Runtime Dynamic = 0.199171 W

  Total L2s: 
  Device Type= ITRS high performance device type
    Area = 8.81041 mm^2
    Peak Dynamic = 0.0566863 W
    Subthreshold Leakage = 0.819757 W
    Gate Leakage = 0.137044 W
    Runtime Dynamic = 0.00289278 W

  Total First Level Directory: 
  Device Type= ITRS high performance device type
    Area = 0.309852 mm^2
    Peak Dynamic = 0.00383535 W
    Subthreshold Leakage = 0.021481 W
    Gate Leakage = 0.00440768 W
    Runtime Dynamic = 6.79111e-10 W

  Total NoCs (Network/Bus): 
  Device Type= ITRS high performance device type
    Area = 0.0224446 mm^2
    Peak Dynamic = 0.0661529 W
    Subthreshold Leakage = 0.00215164 W
    Gate Leakage = 0.000523911 W
    Runtime Dynamic = 0 W

  Total MCs: 1 Memory Controllers 
  Device Type= ITRS high performance device type
    Area = 0.255133 mm^2
    Peak Dynamic = 0.178272 W
    Subthreshold Leakage = 0.00209381 W
    Gate Leakage = 0.000765475 W
    Runtime Dynamic = 0.0179559 W

*****************************************************************************************
Core:
      Area = 2.99698 mm^2
      Peak Dynamic = 0.765963 W
      Subthreshold Leakage = 0.403911 W
      Gate Leakage = 0.100484 W
      Runtime Dynamic = 0.130109 W

      Instruction Fetch Unit:
        Area = 0.38248 mm^2
        Peak Dynamic = 0.145854 W
        Subthreshold Leakage = 0.022762 W
        Gate Leakage = 0.00524774 W
        Runtime Dynamic = 0.0169573 W

      Load Store Unit:
        Area = 0.09045 mm^2
        Peak Dynamic = 0.0711095 W
        Subthreshold Leakage = 0.00674 W
        Gate Leakage = 0.00240948 W
        Runtime Dynamic = 0.0209529 W

      Memory Management Unit:
        Area = 0.0537643 mm^2
        Peak Dynamic = 0.0361709 W
        Subthreshold Leakage = 0.00427823 W
        Gate Leakage = 0.00186514 W
        Runtime Dynamic = 0.0207373 W

      Execution Unit:
        Area = 1.60685 mm^2
        Peak Dynamic = 0.512829 W
        Subthreshold Leakage = 0.23127 W
        Gate Leakage = 0.0571502 W
        Runtime Dynamic = 0.0714614 W

*****************************************************************************************
Core:
      Area = 2.99698 mm^2
      Peak Dynamic = 0.765963 W
      Subthreshold Leakage = 0.403911 W
      Gate Leakage = 0.100484 W
      Runtime Dynamic = 0.0690625 W

      Instruction Fetch Unit:
        Area = 0.38248 mm^2
        Peak Dynamic = 0.145854 W
        Subthreshold Leakage = 0.022762 W
        Gate Leakage = 0.00524774 W
        Runtime Dynamic = 0.0160822 W

      Load Store Unit:
        Area = 0.09045 mm^2
        Peak Dynamic = 0.0711095 W
        Subthreshold Leakage = 0.00674 W
        Gate Leakage = 0.00240948 W
        Runtime Dynamic = 0.0164148 W

      Memory Management Unit:
        Area = 0.0537643 mm^2
        Peak Dynamic = 0.0361709 W
        Subthreshold Leakage = 0.00427823 W
        Gate Leakage = 0.00186514 W
        Runtime Dynamic = 0.0160419 W

      Execution Unit:
        Area = 1.60685 mm^2
        Peak Dynamic = 0.512829 W
        Subthreshold Leakage = 0.23127 W
        Gate Leakage = 0.0571502 W
        Runtime Dynamic = 0.0205236 W

*****************************************************************************************
L2
      Area = 8.81041 mm^2
      Peak Dynamic = 0.0566863 W
      Subthreshold Leakage = 0.819757 W
      Gate Leakage = 0.137044 W
      Runtime Dynamic = 0.00289278 W

*****************************************************************************************
First Level Directory
      Area = 0.309852 mm^2
      Peak Dynamic = 0.00383535 W
      Subthreshold Leakage = 0.021481 W
      Gate Leakage = 0.00440768 W
      Runtime Dynamic = 6.79111e-10 W

*****************************************************************************************
Memory Controller:
      Area = 0.255133 mm^2
      Peak Dynamic = 0.178272 W
      Subthreshold Leakage = 0.00209381 W
      Gate Leakage = 0.000765475 W
      Runtime Dynamic = 0.0179559 W

      Front End Engine:
        Area = 0.218778 mm^2
        Peak Dynamic = 0.0596299 W
        Subthreshold Leakage = 0.00143115 W
        Gate Leakage = 0.000322201 W
        Runtime Dynamic = 0.00598169 W

      Transaction Engine:
        Area = 0.036355 mm^2
        Peak Dynamic = 0.118642 W
        Subthreshold Leakage = 0.000662658 W
        Gate Leakage = 0.000443275 W
        Runtime Dynamic = 0.0119742 W

*****************************************************************************************
BUSES
      Area = 0.0224446 mm^2
      Peak Dynamic = 0.0661529 W
      Subthreshold Leakage = 0.00215164 W
      Gate Leakage = 0.000523911 W
      Runtime Dynamic = 0 W

      Bus: 
        Area = 0.0224446 mm^2
        Peak Dynamic = 0.0661529 W
        Subthreshold Leakage = 0.00215164 W
        Gate Leakage = 0.000523911 W
        Runtime Dynamic = 0 W

*****************************************************************************************

McPAT (version 0.8 of Aug, 2010) results (current print level is 2, please increase print level to see the details in components): 
*****************************************************************************************
  Technology 32 nm
  Interconnect metal projection= aggressive interconnect technology projection
  Core clock Rate(MHz) 2000

*****************************************************************************************
Processor: 
  Area = 15.3918 mm^2
  Peak Power = 3.83389 W
  Total Leakage = 1.99701 W
  Peak Dynamic = 1.83687 W
  Subthreshold Leakage = 1.65331 W
  Gate Leakage = 0.343709 W
  Runtime Dynamic = 0.215109 W

  Total Cores: 2 cores 
  Device Type= ITRS high performance device type
    Area = 5.99395 mm^2
    Peak Dynamic = 1.53193 W
    Subthreshold Leakage = 0.807821 W
    Gate Leakage = 0.200969 W
    Runtime Dynamic = 0.194911 W

  Total L2s: 
  Device Type= ITRS high performance device type
    Area = 8.81041 mm^2
    Peak Dynamic = 0.0566863 W
    Subthreshold Leakage = 0.819757 W
    Gate Leakage = 0.137044 W
    Runtime Dynamic = 0.00229837 W

  Total First Level Directory: 
  Device Type= ITRS high performance device type
    Area = 0.309852 mm^2
    Peak Dynamic = 0.00383535 W
    Subthreshold Leakage = 0.021481 W
    Gate Leakage = 0.00440768 W
    Runtime Dynamic = 6.79111e-10 W

  Total NoCs (Network/Bus): 
  Device Type= ITRS high performance device type
    Area = 0.0224446 mm^2
    Peak Dynamic = 0.0661529 W
    Subthreshold Leakage = 0.00215164 W
    Gate Leakage = 0.000523911 W
    Runtime Dynamic = 0 W

  Total MCs: 1 Memory Controllers 
  Device Type= ITRS high performance device type
    Area = 0.255133 mm^2
    Peak Dynamic = 0.178272 W
    Subthreshold Leakage = 0.00209381 W
    Gate Leakage = 0.000765475 W
    Runtime Dynamic = 0.0178992 W

*****************************************************************************************
Core:
      Area = 2.99698 mm^2
      Peak Dynamic = 0.765963 W
      Subthreshold Leakage = 0.403911 W
      Gate Leakage = 0.100484 W
      Runtime Dynamic = 0.130661 W

      Instruction Fetch Unit:
        Area = 0.38248 mm^2
        Peak Dynamic = 0.145854 W
        Subthreshold Leakage = 0.022762 W
        Gate Leakage = 0.00524774 W
        Runtime Dynamic = 0.0165381 W

      Load Store Unit:
        Area = 0.09045 mm^2
        Peak Dynamic = 0.0711095 W
        Subthreshold Leakage = 0.00674 W
        Gate Leakage = 0.00240948 W
        Runtime Dynamic = 0.0220027 W

      Memory Management Unit:
        Area = 0.0537643 mm^2
        Peak Dynamic = 0.0361709 W
        Subthreshold Leakage = 0.00427823 W
        Gate Leakage = 0.00186514 W
        Runtime Dynamic = 0.0205145 W

      Execution Unit:
        Area = 1.60685 mm^2
        Peak Dynamic = 0.512829 W
        Subthreshold Leakage = 0.23127 W
        Gate Leakage = 0.0571502 W
        Runtime Dynamic = 0.0716061 W

*****************************************************************************************
Core:
      Area = 2.99698 mm^2
      Peak Dynamic = 0.765963 W
      Subthreshold Leakage = 0.403911 W
      Gate Leakage = 0.100484 W
      Runtime Dynamic = 0.0642501 W

      Instruction Fetch Unit:
        Area = 0.38248 mm^2
        Peak Dynamic = 0.145854 W
        Subthreshold Leakage = 0.022762 W
        Gate Leakage = 0.00524774 W
        Runtime Dynamic = 0.016033 W

      Load Store Unit:
        Area = 0.09045 mm^2
        Peak Dynamic = 0.0711095 W
        Subthreshold Leakage = 0.00674 W
        Gate Leakage = 0.00240948 W
        Runtime Dynamic = 0.0160475 W

      Memory Management Unit:
        Area = 0.0537643 mm^2
        Peak Dynamic = 0.0361709 W
        Subthreshold Leakage = 0.00427823 W
        Gate Leakage = 0.00186514 W
        Runtime Dynamic = 0.0160331 W

      Execution Unit:
        Area = 1.60685 mm^2
        Peak Dynamic = 0.512829 W
        Subthreshold Leakage = 0.23127 W
        Gate Leakage = 0.0571502 W
        Runtime Dynamic = 0.0161365 W

*****************************************************************************************
L2
      Area = 8.81041 mm^2
      Peak Dynamic = 0.0566863 W
      Subthreshold Leakage = 0.819757 W
      Gate Leakage = 0.137044 W
      Runtime Dynamic = 0.00229837 W

*****************************************************************************************
First Level Directory
      Area = 0.309852 mm^2
      Peak Dynamic = 0.00383535 W
      Subthreshold Leakage = 0.021481 W
      Gate Leakage = 0.00440768 W
      Runtime Dynamic = 6.79111e-10 W

*****************************************************************************************
Memory Controller:
[...]
Core:
      Area = 2.99698 mm^2
      Peak Dynamic = 0.765963 W
      Subthreshold Leakage = 0.403911 W
      Gate Leakage = 0.100484 W
      Runtime Dynamic = 0.116647 W

      Instruction Fetch Unit:
        Area = 0.38248 mm^2
        Peak Dynamic = 0.145854 W
        Subthreshold Leakage = 0.022762 W
        Gate Leakage = 0.00524774 W
        Runtime Dynamic = 0.0182261 W

      Load Store Unit:
        Area = 0.09045 mm^2
        Peak Dynamic = 0.0711095 W
        Subthreshold Leakage = 0.00674 W
        Gate Leakage = 0.00240948 W
        Runtime Dynamic = 0.0218051 W

      Memory Management Unit:
        Area = 0.0537643 mm^2
        Peak Dynamic = 0.0361709 W
        Subthreshold Leakage = 0.00427823 W
        Gate Leakage = 0.00186514 W
        Runtime Dynamic = 0.0193008 W

      Execution Unit:
        Area = 1.60685 mm^2
        Peak Dynamic = 0.512829 W
        Subthreshold Leakage = 0.23127 W
        Gate Leakage = 0.0571502 W
        Runtime Dynamic = 0.0573148 W

*****************************************************************************************
Core:
      Area = 2.99698 mm^2
      Peak Dynamic = 0.765963 W
      Subthreshold Leakage = 0.403911 W
      Gate Leakage = 0.100484 W
      Runtime Dynamic = 0.081582 W

      Instruction Fetch Unit:
        Area = 0.38248 mm^2
        Peak Dynamic = 0.145854 W
        Subthreshold Leakage = 0.022762 W
        Gate Leakage = 0.00524774 W
        Runtime Dynamic = 0.0163178 W

      Load Store Unit:
        Area = 0.09045 mm^2
        Peak Dynamic = 0.0711095 W
        Subthreshold Leakage = 0.00674 W
        Gate Leakage = 0.00240948 W
        Runtime Dynamic = 0.0173057 W

      Memory Management Unit:
        Area = 0.0537643 mm^2
        Peak Dynamic = 0.0361709 W
        Subthreshold Leakage = 0.00427823 W
        Gate Leakage = 0.00186514 W
        Runtime Dynamic = 0.0173284 W

      Execution Unit:
        Area = 1.60685 mm^2
        Peak Dynamic = 0.512829 W
        Subthreshold Leakage = 0.23127 W
        Gate Leakage = 0.0571502 W
        Runtime Dynamic = 0.0306301 W

*****************************************************************************************
L2
      Area = 8.81041 mm^2
      Peak Dynamic = 0.0566863 W
      Subthreshold Leakage = 0.819757 W
      Gate Leakage = 0.137044 W
      Runtime Dynamic = 0.002191 W

*****************************************************************************************
First Level Directory
      Area = 0.309852 mm^2
      Peak Dynamic = 0.00383535 W
      Subthreshold Leakage = 0.021481 W
      Gate Leakage = 0.00440768 W
      Runtime Dynamic = 6.79111e-10 W

*****************************************************************************************
Memory Controller:
      Area = 0.255133 mm^2
      Peak Dynamic = 0.178272 W
      Subthreshold Leakage = 0.00209381 W
      Gate Leakage = 0.000765475 W
      Runtime Dynamic = 0.0178609 W

      Front End Engine:
        Area = 0.218778 mm^2
        Peak Dynamic = 0.0596299 W
        Subthreshold Leakage = 0.00143115 W
        Gate Leakage = 0.000322201 W
        Runtime Dynamic = 0.00596785 W

      Transaction Engine:
        Area = 0.036355 mm^2
        Peak Dynamic = 0.118642 W
        Subthreshold Leakage = 0.000662658 W
        Gate Leakage = 0.000443275 W
        Runtime Dynamic = 0.0118931 W

*****************************************************************************************
BUSES
      Area = 0.0224446 mm^2
      Peak Dynamic = 0.0661529 W
      Subthreshold Leakage = 0.00215164 W
      Gate Leakage = 0.000523911 W
      Runtime Dynamic = 0 W

      Bus: 
        Area = 0.0224446 mm^2
        Peak Dynamic = 0.0661529 W
        Subthreshold Leakage = 0.00215164 W
        Gate Leakage = 0.000523911 W
        Runtime Dynamic = 0 W

*****************************************************************************************

McPAT (version 0.8 of Aug, 2010) results (current print level is 2, please increase print level to see the details in components): 
*****************************************************************************************
  Technology 32 nm
  Interconnect metal projection= aggressive interconnect technology projection
  Core clock Rate(MHz) 2000

*****************************************************************************************
Processor: 
  Area = 15.3918 mm^2
  Peak Power = 3.83389 W
  Total Leakage = 1.99701 W
  Peak Dynamic = 1.83687 W
  Subthreshold Leakage = 1.65331 W
  Gate Leakage = 0.343709 W
  Runtime Dynamic = 0.180378 W

  Total Cores: 2 cores 
  Device Type= ITRS high performance device type
    Area = 5.99395 mm^2
    Peak Dynamic = 1.53193 W
    Subthreshold Leakage = 0.807821 W
    Gate Leakage = 0.200969 W
    Runtime Dynamic = 0.153508 W

  Total L2s: 
  Device Type= ITRS high performance device type
    Area = 8.81041 mm^2
    Peak Dynamic = 0.0566863 W
    Subthreshold Leakage = 0.819757 W
    Gate Leakage = 0.137044 W
    Runtime Dynamic = 0.00877929 W

  Total First Level Directory: 
  Device Type= ITRS high performance device type
    Area = 0.309852 mm^2
    Peak Dynamic = 0.00383535 W
    Subthreshold Leakage = 0.021481 W
    Gate Leakage = 0.00440768 W
    Runtime Dynamic = 2.48845e-09 W

  Total NoCs (Network/Bus): 
  Device Type= ITRS high performance device type
    Area = 0.0224446 mm^2
    Peak Dynamic = 0.0661529 W
    Subthreshold Leakage = 0.00215164 W
    Gate Leakage = 0.000523911 W
    Runtime Dynamic = 0 W

  Total MCs: 1 Memory Controllers 
  Device Type= ITRS high performance device type
    Area = 0.255133 mm^2
    Peak Dynamic = 0.178272 W
    Subthreshold Leakage = 0.00209381 W
    Gate Leakage = 0.000765475 W
    Runtime Dynamic = 0.0180909 W

*****************************************************************************************
Core:
      Area = 2.99698 mm^2
      Peak Dynamic = 0.765963 W
      Subthreshold Leakage = 0.403911 W
      Gate Leakage = 0.100484 W
      Runtime Dynamic = 0.0642096 W

      Instruction Fetch Unit:
        Area = 0.38248 mm^2
        Peak Dynamic = 0.145854 W
        Subthreshold Leakage = 0.022762 W
        Gate Leakage = 0.00524774 W
        Runtime Dynamic = 0.0113359 W

      Load Store Unit:
        Area = 0.09045 mm^2
        Peak Dynamic = 0.0711095 W
        Subthreshold Leakage = 0.00674 W
        Gate Leakage = 0.00240948 W
        Runtime Dynamic = 0.0132983 W

      Memory Management Unit:
        Area = 0.0537643 mm^2
        Peak Dynamic = 0.0361709 W
        Subthreshold Leakage = 0.00427823 W
        Gate Leakage = 0.00186514 W
        Runtime Dynamic = 0.011419 W

      Execution Unit:
        Area = 1.60685 mm^2
        Peak Dynamic = 0.512829 W
        Subthreshold Leakage = 0.23127 W
        Gate Leakage = 0.0571502 W
        Runtime Dynamic = 0.0281563 W

*****************************************************************************************
Core:
      Area = 2.99698 mm^2
      Peak Dynamic = 0.765963 W
      Subthreshold Leakage = 0.403911 W
      Gate Leakage = 0.100484 W
      Runtime Dynamic = 0.0892982 W

      Instruction Fetch Unit:
        Area = 0.38248 mm^2
        Peak Dynamic = 0.145854 W
        Subthreshold Leakage = 0.022762 W
        Gate Leakage = 0.00524774 W
        Runtime Dynamic = 0.0173323 W

      Load Store Unit:
        Area = 0.09045 mm^2
        Peak Dynamic = 0.0711095 W
        Subthreshold Leakage = 0.00674 W
        Gate Leakage = 0.00240948 W
        Runtime Dynamic = 0.0197685 W

      Memory Management Unit:
        Area = 0.0537643 mm^2
        Peak Dynamic = 0.0361709 W
        Subthreshold Leakage = 0.00427823 W
        Gate Leakage = 0.00186514 W
        Runtime Dynamic = 0.0175055 W

      Execution Unit:
        Area = 1.60685 mm^2
        Peak Dynamic = 0.512829 W
        Subthreshold Leakage = 0.23127 W
        Gate Leakage = 0.0571502 W
        Runtime Dynamic = 0.0346918 W

*****************************************************************************************
L2
      Area = 8.81041 mm^2
      Peak Dynamic = 0.0566863 W
      Subthreshold Leakage = 0.819757 W
      Gate Leakage = 0.137044 W
      Runtime Dynamic = 0.00877929 W

*****************************************************************************************
First Level Directory
      Area = 0.309852 mm^2
      Peak Dynamic = 0.00383535 W
      Subthreshold Leakage = 0.021481 W
      Gate Leakage = 0.00440768 W
      Runtime Dynamic = 2.48845e-09 W

*****************************************************************************************
Memory Controller:
      Area = 0.255133 mm^2
      Peak Dynamic = 0.178272 W
      Subthreshold Leakage = 0.00209381 W
      Gate Leakage = 0.000765475 W
      Runtime Dynamic = 0.0180909 W

      Front End Engine:
        Area = 0.218778 mm^2
        Peak Dynamic = 0.0596299 W
        Subthreshold Leakage = 0.00143115 W
        Gate Leakage = 0.000322201 W
        Runtime Dynamic = 0.00600123 W

      Transaction Engine:
        Area = 0.036355 mm^2
        Peak Dynamic = 0.118642 W
        Subthreshold Leakage = 0.000662658 W
        Gate Leakage = 0.000443275 W
        Runtime Dynamic = 0.0120896 W

*****************************************************************************************
BUSES
      Area = 0.0224446 mm^2
      Peak Dynamic = 0.0661529 W
      Subthreshold Leakage = 0.00215164 W
      Gate Leakage = 0.000523911 W
      Runtime Dynamic = 0 W

      Bus: 
        Area = 0.0224446 mm^2
        Peak Dynamic = 0.0661529 W
        Subthreshold Leakage = 0.00215164 W
        Gate Leakage = 0.000523911 W
        Runtime Dynamic = 0 W

*****************************************************************************************
config: 42.337 s
request: 6.972 ms
request: 7.120 ms
request: 8.715 ms
request: 11.737 ms
request: 10.322 ms
request: 11.953 ms
request: 10.72 ms
request: 12.750 ms
request: 10.886 ms
request: 8.128 ms
request: 11.137 ms
request: 13.500 ms
request: 12.792 ms
request: 8.690 ms
request: 13.130 ms
request: 13.438 ms
request: 13.539 ms
request: 13.86 ms
request: 13.312 ms
request: 11.152 ms
request: 7.929 ms
request: 13.127 ms
request: 8.925 ms
request: 13.488 ms
request: 9.212 ms
request: 6.329 ms
request: 13.168 ms
request: 8.334 ms
request: 8.323 ms
request: 7.928 ms
request: 10.565 ms
request: 10.310 ms
request: 9.230 ms
request: 7.107 ms
request: 13.76 ms
request: 12.467 ms
request: 8.647 ms
request: 7.184 ms
request: 11.447 ms
request: 12.48 ms
request: 7.675 ms
request: 9.399 ms
request: 9.130 ms
request: 12.66 ms
request: 8.259 ms
request: 7.423 ms
request: 8.39 ms
request: 8.94 ms
request: 14.51 ms
request: 6.797 ms
request: 6.953 ms
request: 7.173 ms
request: 7.489 ms
request: 6.998 ms
request: 7.180 ms
request: 8.100 ms
request: 6.987 ms
request: 7.157 ms
request: 6.992 ms
request: 6.932 ms
request: 6.933 ms
request: 6.887 ms
request: 6.483 ms
request: 6.685 ms
request: 8.653 ms
request: 8.350 ms
request: 13.409 ms
request: 13.409 ms
request: 11.609 ms
request: 13.384 ms
request: 10.482 ms
request: 13.379 ms
request: 9.713 ms
request: 7.419 ms
request: 12.806 ms
request: 9.137 ms
request: 7.173 ms
request: 11.415 ms
request: 10.557 ms
request: 8.190 ms
request: 13.70 ms
request: 8.378 ms
request: 8.562 ms
request: 13.138 ms
request: 9.454 ms
request: 7.209 ms
request: 12.582 ms
request: 9.822 ms
request: 12.265 ms
request: 9.32 ms
request: 8.424 ms
request: 12.548 ms
request: 13.5 ms
request: 11.229 ms
request: 7.813 ms
request: 12.616 ms
request: 8.735 ms
request: 12.709 ms
request: 8.797 ms
request: 9.320 ms
request: 9.220 ms
request: 10.877 ms
request: 10.448 ms
request: 8.788 ms
request: 7.390 ms
request: 7.161 ms
request: 8.759 ms
request: 7.473 ms
request: 7.189 ms
request: 6.551 ms
request: 7.147 ms
request: 6.987 ms
request: 6.961 ms
request: 7.7 ms
request: 6.541 ms
request: 6.723 ms
request: 9.487 ms
request: 7.802 ms
request: 13.254 ms
request: 9.718 ms
request: 7.908 ms
request: 12.658 ms
request: 8.647 ms
request: 13.177 ms
request: 13.322 ms
request: 10.52 ms
request: 8.376 ms
request: 6.895 ms
request: 12.982 ms
request: 10.598 ms
request: 8.117 ms
request: 13.294 ms
request: 10.406 ms
request: 13.372 ms
request: 9.618 ms
request: 7.245 ms
request: 12.407 ms
request: 10.688 ms
request: 11.448 ms
request: 10.921 ms
request: 13.388 ms
request: 9.468 ms
request: 13.469 ms
request: 8.489 ms
request: 8.462 ms
request: 8.475 ms
request: 10.749 ms
request: 10.560 ms
request: 8.978 ms
request: 8.949 ms
request: 12.239 ms
request: 13.601 ms
request: 10.417 ms
request: 8.386 ms
request: 7.819 ms
request: 8.15 ms
request: 10.271 ms
request: 7.400 ms
request: 12.772 ms
request: 10.895 ms
request: 13.785 ms
request: 7.11 ms
request: 7.591 ms
request: 7.204 ms
request: 10.128 ms
request: 9.214 ms
request: 8.602 ms
request: 7.312 ms
request: 7.600 ms
request: 7.33 ms
request: 7.215 ms
request: 7.503 ms
request: 7.560 ms
request: 8.792 ms
request: 7.465 ms
request: 7.120 ms
request: 7.661 ms
request: 7.261 ms
request: 7.247 ms
request: 7.257 ms
request: 7.22 ms
request: 7.246 ms
request: 7.391 ms
request: 7.295 ms
request: 7.208 ms
request: 7.401 ms
request: 7.473 ms
request: 7.478 ms
request: 7.258 ms
request: 7.49 ms
request: 6.949 ms
request: 6.423 ms
request: 6.537 ms
request: 7.741 ms
request: 11.597 ms
request: 10.417 ms
request: 7.461 ms
request: 11.734 ms
request: 10.732 ms
request: 13.456 ms
request: 10.34 ms
request: 13.490 ms
request: 9.103 ms
request: 13.503 ms
request: 9.598 ms
request: 13.68 ms
request: 9.363 ms
request: 11.697 ms
request: 13.301 ms
request: 11.35 ms
request: 9.50 ms
request: 12.966 ms
request: 13.467 ms
request: 10.802 ms
request: 7.373 ms
request: 12.615 ms
request: 13.467 ms
request: 13.499 ms
request: 12.919 ms
request: 8.533 ms
request: 10.797 ms
request: 13.564 ms
request: 13.22 ms
request: 8.582 ms
request: 10.532 ms
request: 11.192 ms
request: 7.861 ms
request: 13.291 ms
request: 10.233 ms
request: 8.407 ms
request: 13.174 ms
request: 13.448 ms
request: 10.784 ms
request: 7.271 ms
request: 12.717 ms
request: 13.323 ms
request: 13.628 ms
request: 12.540 ms
request: 8.887 ms
request: 13.107 ms
request: 13.466 ms
request: 13.586 ms
request: 12.775 ms
request: 8.589 ms
request: 10.541 ms
request: 10.305 ms
request: 10.683 ms
request: 12.737 ms
request: 13.429 ms
request: 13.413 ms
request: 12.740 ms
request: 8.792 ms
request: 13.267 ms
request: 13.355 ms
request: 11.802 ms
request: 8.246 ms
request: 10.361 ms
request: 11.381 ms
request: 13.381 ms
request: 13.337 ms
request: 12.414 ms
request: 8.508 ms
request: 9.988 ms
request: 12.50 ms
request: 8.285 ms
request: 7.470 ms
request: 10.827 ms
request: 10.554 ms
request: 8.649 ms
request: 8.59 ms
request: 12.199 ms
request: 13.378 ms
request: 11.961 ms
request: 13.347 ms
request: 13.365 ms
request: 12.776 ms
request: 13.495 ms
request: 10.379 ms
request: 13.62 ms
request: 9.752 ms
request: 7.301 ms
request: 13.261 ms
request: 13.250 ms
request: 11.159 ms
request: 7.73 ms
request: 13.443 ms
request: 13.409 ms
request: 11.888 ms
request: 12.314 ms
request: 11.28 ms
request: 7.832 ms
request: 12.941 ms
request: 13.51 ms
request: 11.37 ms
request: 13.495 ms
request: 9.985 ms
request: 13.385 ms
request: 9.156 ms
request: 7.453 ms
request: 12.878 ms
request: 9.803 ms
request: 7.521 ms
request: 7.537 ms
request: 7.551 ms
request: 6.404 ms
request: 13.204 ms
request: 13.534 ms
request: 11.227 ms
request: 7.695 ms
request: 12.918 ms
request: 13.462 ms
request: 13.419 ms
request: 13.17 ms
request: 8.529 ms
request: 13.465 ms
request: 13.463 ms
request: 11.221 ms
request: 13.231 ms
request: 9.992 ms
request: 7.337 ms
request: 11.595 ms
request: 10.739 ms
request: 13.54 ms
request: 13.444 ms
request: 12.251 ms
request: 8.425 ms
request: 10.509 ms
request: 11.313 ms
request: 7.997 ms
request: 7.667 ms
request: 11.877 ms
request: 10.163 ms
request: 7.765 ms
request: 12.654 ms
request: 8.513 ms
request: 10.486 ms
request: 10.130 ms
request: 9.333 ms
request: 7.103 ms
request: 7.462 ms
request: 12.975 ms
request: 8.856 ms
request: 7.459 ms
request: 12.635 ms
request: 8.931 ms
request: 13.229 ms
request: 9.272 ms
request: 7.183 ms
request: 12.913 ms
request: 8.721 ms
request: 9.900 ms
request: 12.340 ms
request: 8.598 ms
request: 13.112 ms
request: 8.353 ms
request: 8.340 ms
request: 7.847 ms
request: 10.713 ms
request: 10.473 ms
request: 8.974 ms
request: 7.118 ms
request: 11.516 ms
request: 13.479 ms
request: 12.372 ms
request: 9.59 ms
request: 13.158 ms
request: 13.411 ms
request: 13.389 ms
request: 13.11 ms
request: 13.432 ms
request: 13.378 ms
request: 13.101 ms
request: 8.857 ms
request: 7.222 ms
request: 7.347 ms
request: 11.255 ms
request: 11.537 ms
request: 8.82 ms
request: 13.178 ms
request: 8.942 ms
request: 13.336 ms
request: 13.360 ms
request: 11.497 ms
request: 8.24 ms
request: 13.156 ms
request: 8.944 ms
request: 13.386 ms
request: 9.180 ms
request: 6.990 ms
request: 13.333 ms
request: 9.854 ms
request: 7.364 ms
request: 11.220 ms
request: 10.684 ms
request: 13.480 ms
request: 13.427 ms
request: 12.327 ms
request: 8.435 ms
request: 7.144 ms
request: 7.231 ms
request: 7.864 ms
request: 11.397 ms
request: 10.598 ms
request: 7.980 ms
request: 10.621 ms
request: 10.748 ms
request: 8.856 ms
request: 13.492 ms
request: 9.121 ms
request: 13.380 ms
request: 9.145 ms
request: 7.125 ms
request: 11.983 ms
request: 10.391 ms
request: 7.545 ms
request: 11.211 ms
request: 10.570 ms
request: 8.429 ms
request: 10.387 ms
request: 11.322 ms
request: 13.355 ms
request: 13.342 ms
request: 12.495 ms
request: 8.694 ms
request: 13.331 ms
request: 8.896 ms
request: 13.445 ms
request: 13.388 ms
request: 11.254 ms
request: 8.238 ms
request: 13.220 ms
request: 8.920 ms
request: 13.364 ms
request: 13.389 ms
request: 11.500 ms
request: 7.817 ms
request: 13.125 ms
request: 8.873 ms
request: 13.418 ms
request: 13.344 ms
request: 11.380 ms
request: 8.7 ms
request: 13.183 ms
request: 8.926 ms
request: 13.330 ms
request: 13.370 ms
request: 11.418 ms
request: 8.26 ms
request: 13.154 ms
request: 8.883 ms
request: 13.340 ms
request: 13.259 ms
request: 11.61 ms
request: 7.901 ms
request: 12.892 ms
request: 13.322 ms
request: 7.580 ms
request: 9.779 ms
request: 13.419 ms
request: 9.794 ms
request: 7.452 ms
request: 11.388 ms
request: 10.581 ms
request: 7.946 ms
request: 12.639 ms
request: 8.926 ms
request: 9.925 ms
request: 11.752 ms
request: 8.170 ms
request: 12.214 ms
request: 9.444 ms
request: 12.530 ms
request: 10.564 ms
request: 13.331 ms
request: 9.974 ms
request: 7.479 ms
request: 11.291 ms
request: 10.550 ms
request: 8.298 ms
request: 13.300 ms
request: 9.27 ms
request: 13.320 ms
request: 9.160 ms
request: 13.353 ms
request: 13.430 ms
request: 11.78 ms
request: 13.438 ms
request: 10.599 ms
request: 13.379 ms
request: 10.249 ms
request: 13.431 ms
request: 9.451 ms
request: 13.47 ms
request: 9.377 ms
request: 13.427 ms
request: 13.302 ms
request: 11.129 ms
request: 12.455 ms
request: 10.360 ms
request: 13.298 ms
request: 10.595 ms
request: 13.383 ms
request: 13.451 ms
request: 12.245 ms
request: 13.472 ms
request: 13.496 ms
request: 12.539 ms
request: 13.327 ms
request: 11.356 ms
request: 13.544 ms
request: 13.510 ms
request: 11.476 ms
request: 13.498 ms
request: 10.24 ms
request: 7.620 ms
request: 12.432 ms
request: 8.497 ms
request: 10.751 ms
request: 11.788 ms
request: 8.237 ms
request: 12.345 ms
request: 13.385 ms
request: 10.895 ms
request: 7.555 ms
request: 13.39 ms
request: 8.810 ms
request: 9.993 ms
request: 12.77 ms
request: 13.360 ms
request: 13.348 ms
request: 12.639 ms
request: 8.559 ms
request: 7.390 ms
request: 12.937 ms
request: 12.174 ms
request: 11.665 ms
request: 13.196 ms
request: 13.491 ms
request: 12.329 ms
request: 8.324 ms
request: 10.727 ms
request: 11.39 ms
request: 7.916 ms
request: 12.978 ms
request: 8.376 ms
request: 8.341 ms
request: 7.621 ms
request: 11.26 ms
request: 13.394 ms
request: 12.811 ms
request: 8.662 ms
request: 9.892 ms
request: 12.714 ms
request: 8.798 ms
request: 7.238 ms
